data/pglib_opf_case2736sp_k_storage.m
%%%%%%%%%%%%%%%%%%%%%%%%%%%%%%%%%%%%%%%%%%%%%%%%%%%%%%%%%%%%%%%%%%%%%%%%%%%
%%%%                                                                  %%%%%
%%%%    IEEE PES Power Grid Library - Optimal Power Flow - v23.07     %%%%%
%%%%          (https://github.com/power-grid-lib/pglib-opf)           %%%%%
%%%%               Benchmark Group - Typical Operations               %%%%%
%%%%                         23 - July - 2023                         %%%%%
%%%%                                                                  %%%%%
%%%%%%%%%%%%%%%%%%%%%%%%%%%%%%%%%%%%%%%%%%%%%%%%%%%%%%%%%%%%%%%%%%%%%%%%%%%
%
%   Power flow data for Polish system - summer 2004 peak.
%
%   This case represents the Polish 400, 220 and 110 kV networks during
%   summer 2004 peak conditions. Multiple centrally dispatchable
%   generators at a bus have not been aggregated. Generators that are
%   not centrally dispatchable in the Polish energy market are given a
%   cost of zero.
%
%   Copyright (c) 2010 by Roman Korab <roman.korab@polsl.pl>
%   Licensed under the Creative Commons Attribution 4.0
%   International license, http://creativecommons.org/licenses/by/4.0/
%
% Modified to have additional storage capacity and increased gencost
function mpc = pglib_opf_case2736sp_k
mpc.version = '2';
mpc.baseMVA = 100.0;

%% bus data
%	bus_i	type	Pd	Qd	Gs	Bs	area	Vm	Va	baseKV	zone	Vmax	Vmin
mpc.bus = [
	1	 1	 0.0	 0.0	 0.0	 0.0	 1	    1.03000	    0.00000	 220.0	 1	    1.11000	    0.95000;
	2	 1	 0.0	 0.0	 0.0	 0.0	 1	    1.03000	    0.00000	 220.0	 1	    1.11000	    0.95000;
	3	 1	 0.0	 0.0	 0.0	 0.0	 1	    1.03000	    0.00000	 220.0	 1	    1.11000	    0.95000;
	4	 1	 0.0	 0.0	 0.0	 0.0	 1	    1.03000	    0.00000	 220.0	 1	    1.11000	    0.95000;
	5	 1	 0.0	 0.0	 0.0	 0.0	 1	    1.03000	    0.00000	 220.0	 1	    1.11000	    0.95000;
	6	 1	 0.0	 0.0	 0.0	 0.0	 1	    1.03000	    0.00000	 220.0	 1	    1.11000	    0.95000;
	7	 1	 0.0	 0.0	 0.0	 0.0	 1	    1.03000	    0.00000	 220.0	 1	    1.11000	    0.95000;
	8	 1	 0.0	 0.0	 0.0	 0.0	 1	    1.00000	    0.00000	 400.0	 1	    1.05000	    0.95000;
	9	 1	 0.0	 0.0	 0.0	 0.0	 1	    1.00000	    0.00000	 400.0	 1	    1.05000	    0.95000;
	10	 1	 0.0	 0.0	 0.0	 0.0	 1	    1.03000	    0.00000	 220.0	 1	    1.11000	    0.95000;
	11	 1	 0.0	 0.0	 0.0	 0.0	 1	    1.03000	    0.00000	 220.0	 1	    1.11000	    0.95000;
	12	 1	 0.0	 0.0	 0.0	 0.0	 1	    1.03000	    0.00000	 220.0	 1	    1.11000	    0.95000;
	13	 1	 0.0	 0.0	 0.0	 0.0	 1	    1.03000	    0.00000	 220.0	 1	    1.11000	    0.95000;
	14	 1	 0.0	 0.0	 0.0	 0.0	 1	    1.00000	    0.00000	 400.0	 1	    1.05000	    0.95000;
	15	 1	 0.0	 0.0	 0.0	 0.0	 1	    1.00000	    0.00000	 400.0	 1	    1.05000	    0.95000;
	16	 1	 0.0	 0.0	 0.0	 0.0	 1	    1.00000	    0.00000	 400.0	 1	    1.05000	    0.95000;
	17	 2	 0.0	 0.0	 0.0	 0.0	 1	    1.03000	    0.00000	 220.0	 1	    1.11000	    0.95000;
	18	 1	 0.0	 0.0	 0.0	 0.0	 1	    1.03000	    0.00000	 220.0	 1	    1.11000	    0.95000;
	19	 1	 0.0	 0.0	 0.0	 0.0	 1	    1.03000	    0.00000	 220.0	 1	    1.11000	    0.95000;
	20	 1	 0.0	 0.0	 0.0	 0.0	 1	    1.03000	    0.00000	 220.0	 1	    1.11000	    0.95000;
	21	 1	 0.0	 0.0	 0.0	 0.0	 1	    1.03000	    0.00000	 220.0	 1	    1.11000	    0.95000;
	22	 1	 0.0	 0.0	 0.0	 0.0	 1	    1.03000	    0.00000	 220.0	 1	    1.11000	    0.95000;
	23	 1	 0.0	 0.0	 0.0	 0.0	 1	    1.03000	    0.00000	 220.0	 1	    1.11000	    0.95000;
	24	 1	 0.0	 0.0	 0.0	 0.0	 1	    1.03000	    0.00000	 220.0	 1	    1.11000	    0.95000;
	25	 1	 0.0	 0.0	 0.0	 0.0	 1	    1.00000	    0.00000	 400.0	 1	    1.05000	    0.95000;
	26	 2	 61.358	 72.054	 0.0	 0.0	 1	    1.03000	    0.00000	 220.0	 1	    1.11000	    0.95000;
	27	 2	 84.861	 122.06	 0.0	 0.0	 1	    1.03000	    0.00000	 220.0	 1	    1.11000	    0.95000;
	28	 3	 49.0	 74.0	 0.0	 0.0	 1	    1.00000	    0.00000	 400.0	 1	    1.05000	    0.95000;
	29	 2	 49.0	 74.0	 0.0	 0.0	 1	    1.00000	    0.00000	 400.0	 1	    1.05000	    0.95000;
	30	 1	 0.0	 0.0	 0.0	 0.0	 1	    1.03000	    0.00000	 220.0	 1	    1.11000	    0.95000;
	31	 1	 0.0	 0.0	 0.0	 0.0	 1	    1.00000	    0.00000	 400.0	 1	    1.05000	    0.95000;
	32	 1	 0.0	 0.0	 0.0	 0.0	 1	    1.03000	    0.00000	 220.0	 1	    1.11000	    0.95000;
	33	 1	 0.0	 0.0	 0.0	 0.0	 1	    1.03000	    0.00000	 220.0	 1	    1.11000	    0.95000;
	34	 1	 0.0	 0.0	 0.0	 0.0	 1	    1.03000	    0.00000	 220.0	 2	    1.11000	    0.95000;
	35	 1	 0.0	 0.0	 0.0	 0.0	 1	    1.03000	    0.00000	 220.0	 2	    1.11000	    0.95000;
	36	 1	 0.0	 0.0	 0.0	 0.0	 1	    1.03000	    0.00000	 220.0	 2	    1.11000	    0.95000;
	37	 1	 0.0	 0.0	 0.0	 0.0	 1	    1.03000	    0.00000	 220.0	 2	    1.11000	    0.95000;
	38	 1	 0.0	 0.0	 0.0	 0.0	 1	    1.03000	    0.00000	 220.0	 2	    1.11000	    0.95000;
	39	 1	 0.0	 0.0	 0.0	 0.0	 1	    1.03000	    0.00000	 220.0	 2	    1.11000	    0.95000;
	40	 1	 0.0	 0.0	 0.0	 0.0	 1	    1.03000	    0.00000	 220.0	 2	    1.11000	    0.95000;
	41	 1	 0.0	 0.0	 0.0	 0.0	 1	    1.00000	    0.00000	 400.0	 2	    1.05000	    0.95000;
	42	 2	 25.0	 0.0	 0.0	 0.0	 1	    1.03000	    0.00000	 220.0	 2	    1.11000	    0.95000;
	43	 2	 26.0	 0.0	 0.0	 0.0	 1	    1.03000	    0.00000	 220.0	 2	    1.11000	    0.95000;
	44	 2	 25.0	 0.0	 0.0	 0.0	 1	    1.00000	    0.00000	 400.0	 2	    1.05000	    0.95000;
	45	 1	 0.0	 0.0	 0.0	 0.0	 1	    1.00000	    0.00000	 400.0	 2	    1.05000	    0.95000;
	46	 1	 0.0	 0.0	 0.0	 0.0	 1	    1.03000	    0.00000	 220.0	 2	    1.11000	    0.95000;
	47	 1	 0.0	 0.0	 0.0	 0.0	 1	    1.00000	    0.00000	 400.0	 2	    1.05000	    0.95000;
	48	 1	 0.0	 0.0	 0.0	 0.0	 1	    1.00000	    0.00000	 400.0	 2	    1.05000	    0.95000;
	49	 1	 0.0	 0.0	 0.0	 0.0	 1	    1.00000	    0.00000	 400.0	 2	    1.05000	    0.95000;
	50	 1	 0.0	 0.0	 0.0	 0.0	 1	    1.03000	    0.00000	 220.0	 2	    1.11000	    0.95000;
	51	 1	 0.0	 0.0	 0.0	 0.0	 1	    1.03000	    0.00000	 220.0	 2	    1.11000	    0.95000;
	52	 1	 0.0	 0.0	 0.0	 0.0	 1	    1.00000	    0.00000	 400.0	 2	    1.05000	    0.95000;
	53	 1	 0.0	 0.0	 0.0	 0.0	 1	    1.00000	    0.00000	 400.0	 2	    1.05000	    0.95000;
	54	 2	 13.0	 0.0	 0.0	 0.0	 1	    1.03000	    0.00000	 220.0	 2	    1.11000	    0.95000;
	55	 2	 13.0	 0.0	 0.0	 0.0	 1	    1.03000	    0.00000	 220.0	 2	    1.11000	    0.95000;
	56	 2	 13.0	 0.0	 0.0	 0.0	 1	    1.00000	    0.00000	 400.0	 2	    1.05000	    0.95000;
	57	 2	 26.0	 0.0	 0.0	 0.0	 1	    1.00000	    0.00000	 400.0	 2	    1.05000	    0.95000;
	58	 2	 89.067	 40.0	 0.0	 0.0	 1	    1.03000	    0.00000	 220.0	 2	    1.11000	    0.95000;
	59	 1	 0.0	 0.0	 0.0	 0.0	 1	    1.03000	    0.00000	 220.0	 2	    1.11000	    0.95000;
	60	 1	 0.0	 0.0	 0.0	 0.0	 1	    1.03000	    0.00000	 220.0	 2	    1.11000	    0.95000;
	61	 1	 0.0	 0.0	 0.0	 0.0	 1	    1.03000	    0.00000	 220.0	 2	    1.11000	    0.95000;
	62	 1	 0.0	 0.0	 0.0	 0.0	 1	    1.03000	    0.00000	 220.0	 2	    1.11000	    0.95000;
	63	 1	 0.0	 0.0	 0.0	 0.0	 1	    1.00000	    0.00000	 400.0	 2	    1.05000	    0.95000;
	64	 1	 0.0	 0.0	 0.0	 0.0	 1	    1.00000	    0.00000	 400.0	 2	    1.05000	    0.95000;
	65	 1	 0.0	 0.0	 0.0	 0.0	 1	    1.03000	    0.00000	 220.0	 2	    1.11000	    0.95000;
	66	 1	 0.0	 0.0	 0.0	 0.0	 1	    1.03000	    0.00000	 220.0	 2	    1.11000	    0.95000;
	67	 1	 0.0	 0.0	 0.0	 0.0	 1	    1.03000	    0.00000	 220.0	 2	    1.11000	    0.95000;
	68	 1	 0.0	 0.0	 0.0	 0.0	 1	    1.03000	    0.00000	 220.0	 3	    1.11000	    0.95000;
	69	 1	 10.327	 0.0	 0.0	 0.0	 1	    1.03000	    0.00000	 220.0	 3	    1.11000	    0.95000;
	70	 1	 8.032	 3.714	 0.0	 0.0	 1	    1.03000	    0.00000	 220.0	 3	    1.11000	    0.95000;
	71	 1	 0.0	 0.0	 0.0	 0.0	 1	    1.03000	    0.00000	 220.0	 3	    1.11000	    0.95000;
	72	 1	 0.0	 0.0	 0.0	 0.0	 1	    1.03000	    0.00000	 220.0	 3	    1.11000	    0.95000;
	73	 1	 0.0	 0.0	 0.0	 0.0	 1	    1.03000	    0.00000	 220.0	 3	    1.11000	    0.95000;
	74	 1	 0.0	 0.0	 0.0	 0.0	 1	    1.03000	    0.00000	 220.0	 3	    1.11000	    0.95000;
	75	 1	 0.0	 0.0	 0.0	 0.0	 1	    1.03000	    0.00000	 220.0	 3	    1.11000	    0.95000;
	76	 1	 0.0	 0.0	 0.0	 0.0	 1	    1.03000	    0.00000	 220.0	 3	    1.11000	    0.95000;
	77	 2	 27.0	 70.0	 0.0	 0.0	 1	    1.03000	    0.00000	 220.0	 3	    1.11000	    0.95000;
	78	 2	 18.7	 42.0	 0.0	 0.0	 1	    1.03000	    0.00000	 220.0	 3	    1.11000	    0.95000;
	79	 1	 4.934	 0.817	 0.0	 0.0	 1	    1.03000	    0.00000	 220.0	 3	    1.11000	    0.95000;
	80	 1	 0.0	 0.0	 0.0	 0.0	 1	    1.03000	    0.00000	 220.0	 3	    1.11000	    0.95000;
	81	 2	 18.0	 57.0	 0.0	 0.0	 1	    1.00000	    0.00000	 400.0	 3	    1.05000	    0.95000;
	82	 1	 0.0	 0.0	 0.0	 0.0	 1	    1.03000	    0.00000	 220.0	 3	    1.11000	    0.95000;
	83	 1	 0.0	 0.0	 0.0	 0.0	 1	    1.03000	    0.00000	 220.0	 3	    1.11000	    0.95000;
	84	 1	 0.0	 0.0	 0.0	 0.0	 1	    1.03000	    0.00000	 220.0	 3	    1.11000	    0.95000;
	85	 1	 44.864	 -6.4	 0.0	 0.0	 1	    1.03000	    0.00000	 220.0	 3	    1.11000	    0.95000;
	86	 1	 0.0	 0.0	 0.0	 0.0	 1	    1.03000	    0.00000	 220.0	 3	    1.11000	    0.95000;
	87	 1	 0.0	 0.0	 0.0	 0.0	 1	    1.03000	    0.00000	 220.0	 3	    1.11000	    0.95000;
	88	 1	 0.0	 0.0	 0.0	 0.0	 1	    1.03000	    0.00000	 220.0	 3	    1.11000	    0.95000;
	89	 1	 0.0	 0.0	 0.0	 0.0	 1	    1.03000	    0.00000	 220.0	 3	    1.11000	    0.95000;
	90	 1	 0.0	 0.0	 0.0	 0.0	 1	    1.03000	    0.00000	 220.0	 3	    1.11000	    0.95000;
	91	 1	 0.0	 0.0	 0.0	 0.0	 1	    1.00000	    0.00000	 400.0	 3	    1.05000	    0.95000;
	92	 1	 0.0	 0.0	 0.0	 0.0	 1	    1.00000	    0.00000	 400.0	 3	    1.05000	    0.95000;
	93	 1	 0.0	 0.0	 0.0	 0.0	 1	    1.03000	    0.00000	 220.0	 3	    1.11000	    0.95000;
	94	 1	 0.0	 0.0	 0.0	 0.0	 1	    1.03000	    0.00000	 220.0	 3	    1.11000	    0.95000;
	95	 1	 0.0	 0.0	 0.0	 0.0	 1	    1.03000	    0.00000	 220.0	 3	    1.11000	    0.95000;
	96	 1	 0.0	 0.0	 0.0	 0.0	 1	    1.03000	    0.00000	 220.0	 3	    1.11000	    0.95000;
	97	 2	 12.49	 3.696	 0.0	 0.0	 1	    1.03000	    0.00000	 220.0	 3	    1.11000	    0.95000;
	98	 1	 17.327	 6.126	 0.0	 0.0	 1	    1.03000	    0.00000	 220.0	 3	    1.11000	    0.95000;
	99	 1	 0.0	 0.0	 0.0	 0.0	 1	    1.03000	    0.00000	 220.0	 3	    1.11000	    0.95000;
	100	 1	 0.0	 0.0	 0.0	 0.0	 1	    1.03000	    0.00000	 220.0	 3	    1.11000	    0.95000;
	101	 1	 0.0	 0.0	 0.0	 0.0	 1	    1.03000	    0.00000	 220.0	 3	    1.11000	    0.95000;
	102	 1	 0.0	 0.0	 0.0	 0.0	 1	    1.03000	    0.00000	 220.0	 3	    1.11000	    0.95000;
	103	 2	 14.0	 40.0	 0.0	 0.0	 1	    1.03000	    0.00000	 220.0	 3	    1.11000	    0.95000;
	104	 2	 0.0	 0.0	 0.0	 0.0	 1	    1.03000	    0.00000	 220.0	 3	    1.11000	    0.95000;
	105	 2	 7.0	 18.0	 0.0	 0.0	 1	    1.03000	    0.00000	 220.0	 3	    1.11000	    0.95000;
	106	 2	 0.0	 0.0	 0.0	 0.0	 1	    1.03000	    0.00000	 220.0	 3	    1.11000	    0.95000;
	107	 1	 0.0	 13.892	 0.0	 0.0	 1	    1.03000	    0.00000	 220.0	 3	    1.11000	    0.95000;
	108	 1	 73.779	 8.097	 0.0	 0.0	 1	    1.03000	    0.00000	 220.0	 3	    1.11000	    0.95000;
	109	 1	 0.0	 0.0	 0.0	 0.0	 1	    1.03000	    0.00000	 220.0	 3	    1.11000	    0.95000;
	110	 1	 0.0	 0.0	 0.0	 0.0	 1	    1.03000	    0.00000	 220.0	 3	    1.11000	    0.95000;
	111	 1	 0.0	 0.0	 0.0	 0.0	 1	    1.03000	    0.00000	 220.0	 3	    1.11000	    0.95000;
	112	 1	 0.0	 0.0	 0.0	 0.0	 1	    1.03000	    0.00000	 220.0	 3	    1.11000	    0.95000;
	113	 1	 0.0	 0.0	 0.0	 0.0	 1	    1.03000	    0.00000	 220.0	 3	    1.11000	    0.95000;
	114	 1	 0.0	 0.0	 0.0	 0.0	 1	    1.00000	    0.00000	 400.0	 3	    1.05000	    0.95000;
	115	 2	 0.0	 0.0	 0.0	 0.0	 1	    1.03000	    0.00000	 220.0	 3	    1.11000	    0.95000;
	116	 2	 8.0	 15.0	 0.0	 0.0	 1	    1.03000	    0.00000	 220.0	 3	    1.11000	    0.95000;
	117	 2	 5.5	 10.0	 0.0	 0.0	 1	    1.03000	    0.00000	 220.0	 3	    1.11000	    0.95000;
	118	 1	 0.0	 0.0	 0.0	 0.0	 1	    1.03000	    0.00000	 220.0	 3	    1.11000	    0.95000;
	119	 1	 0.0	 0.0	 0.0	 0.0	 1	    1.00000	    0.00000	 400.0	 3	    1.05000	    0.95000;
	120	 1	 0.0	 0.0	 0.0	 0.0	 1	    1.00000	    0.00000	 400.0	 3	    1.05000	    0.95000;
	121	 1	 0.0	 0.0	 0.0	 0.0	 1	    1.00000	    0.00000	 400.0	 3	    1.05000	    0.95000;
	122	 1	 0.0	 0.0	 0.0	 0.0	 1	    1.00000	    0.00000	 400.0	 3	    1.05000	    0.95000;
	123	 1	 0.0	 0.0	 0.0	 0.0	 1	    1.03000	    0.00000	 220.0	 3	    1.11000	    0.95000;
	124	 2	 11.0	 17.5	 0.0	 0.0	 1	    1.03000	    0.00000	 220.0	 3	    1.11000	    0.95000;
	125	 2	 41.353	 61.2	 0.0	 0.0	 1	    1.03000	    0.00000	 220.0	 3	    1.11000	    0.95000;
	126	 2	 14.0	 33.0	 0.0	 0.0	 1	    1.00000	    0.00000	 400.0	 3	    1.05000	    0.95000;
	127	 1	 0.0	 0.0	 0.0	 0.0	 1	    1.00000	    0.00000	 400.0	 3	    1.05000	    0.95000;
	128	 1	 0.0	 0.0	 0.0	 0.0	 1	    1.03000	    0.00000	 220.0	 3	    1.11000	    0.95000;
	129	 1	 0.0	 0.0	 0.0	 0.0	 1	    1.03000	    0.00000	 220.0	 3	    1.11000	    0.95000;
	130	 1	 0.0	 0.0	 0.0	 0.0	 1	    1.03000	    0.00000	 220.0	 3	    1.11000	    0.95000;
	131	 2	 1.5	 9.0	 0.0	 0.0	 1	    1.03000	    0.00000	 220.0	 3	    1.11000	    0.95000;
	132	 2	 0.0	 0.0	 0.0	 0.0	 1	    1.03000	    0.00000	 220.0	 3	    1.11000	    0.95000;
	133	 2	 11.215	 8.3	 0.0	 0.0	 1	    1.03000	    0.00000	 220.0	 4	    1.11000	    0.95000;
	134	 2	 10.333	 7.7	 0.0	 0.0	 1	    1.03000	    0.00000	 220.0	 4	    1.11000	    0.95000;
	135	 1	 0.0	 0.0	 0.0	 0.0	 1	    1.03000	    0.00000	 220.0	 4	    1.11000	    0.95000;
	136	 1	 0.0	 0.0	 0.0	 0.0	 1	    1.03000	    0.00000	 220.0	 4	    1.11000	    0.95000;
	137	 1	 0.0	 0.0	 0.0	 0.0	 1	    1.00000	    0.00000	 400.0	 4	    1.05000	    0.95000;
	138	 1	 0.0	 0.0	 0.0	 0.0	 1	    1.00000	    0.00000	 400.0	 4	    1.05000	    0.95000;
	139	 1	 0.0	 0.0	 0.0	 0.0	 1	    1.03000	    0.00000	 220.0	 4	    1.11000	    0.95000;
	140	 1	 0.0	 0.0	 0.0	 0.0	 1	    1.03000	    0.00000	 220.0	 4	    1.11000	    0.95000;
	141	 1	 0.0	 0.0	 0.0	 0.0	 1	    1.03000	    0.00000	 220.0	 4	    1.11000	    0.95000;
	142	 1	 0.0	 0.0	 0.0	 0.0	 1	    1.03000	    0.00000	 220.0	 4	    1.11000	    0.95000;
	143	 1	 0.0	 0.0	 0.0	 0.0	 1	    1.03000	    0.00000	 220.0	 4	    1.11000	    0.95000;
	144	 1	 0.0	 0.0	 0.0	 0.0	 1	    1.03000	    0.00000	 220.0	 4	    1.11000	    0.95000;
	145	 2	 0.0	 0.0	 0.0	 0.0	 1	    1.03000	    0.00000	 220.0	 4	    1.11000	    0.95000;
	146	 2	 0.0	 0.0	 0.0	 0.0	 1	    1.03000	    0.00000	 220.0	 4	    1.11000	    0.95000;
	147	 2	 25.553	 12.9	 0.0	 0.0	 1	    1.03000	    0.00000	 220.0	 4	    1.11000	    0.95000;
	148	 1	 0.0	 0.0	 0.0	 0.0	 1	    1.03000	    0.00000	 220.0	 4	    1.11000	    0.95000;
	149	 2	 11.0	 12.0	 0.0	 0.0	 1	    1.00000	    0.00000	 400.0	 4	    1.05000	    0.95000;
	150	 2	 11.922	 13.7	 0.0	 0.0	 1	    1.00000	    0.00000	 400.0	 4	    1.05000	    0.95000;
	151	 1	 0.0	 0.0	 0.0	 0.0	 1	    1.03000	    0.00000	 220.0	 4	    1.11000	    0.95000;
	152	 1	 0.0	 0.0	 0.0	 0.0	 1	    1.03000	    0.00000	 220.0	 4	    1.11000	    0.95000;
	153	 1	 0.0	 0.0	 0.0	 0.0	 1	    1.03000	    0.00000	 220.0	 4	    1.11000	    0.95000;
	154	 2	 19.475	 64.3	 0.0	 0.0	 1	    1.03000	    0.00000	 220.0	 4	    1.11000	    0.95000;
	155	 2	 16.0	 33.0	 0.0	 0.0	 1	    1.03000	    0.00000	 220.0	 4	    1.11000	    0.95000;
	156	 1	 0.0	 0.0	 0.0	 0.0	 1	    1.00000	    0.00000	 400.0	 4	    1.05000	    0.95000;
	157	 2	 10.0	 25.0	 0.0	 0.0	 1	    1.00000	    0.00000	 400.0	 4	    1.05000	    0.95000;
	158	 1	 0.0	 0.0	 0.0	 0.0	 1	    1.03000	    0.00000	 220.0	 4	    1.11000	    0.95000;
	159	 1	 0.0	 0.0	 0.0	 0.0	 1	    1.03000	    0.00000	 220.0	 4	    1.11000	    0.95000;
	160	 1	 0.0	 0.0	 0.0	 0.0	 1	    1.00000	    0.00000	 400.0	 4	    1.05000	    0.95000;
	161	 1	 0.0	 0.0	 0.0	 0.0	 1	    1.00000	    0.00000	 400.0	 4	    1.05000	    0.95000;
	162	 1	 0.0	 0.0	 0.0	 0.0	 1	    1.00000	    0.00000	 400.0	 4	    1.05000	    0.95000;
	163	 2	 5.54	 2.93	 0.0	 0.0	 1	    1.03000	    0.00000	 220.0	 4	    1.11000	    0.95000;
	164	 2	 18.255	 11.5	 0.0	 0.0	 1	    1.03000	    0.00000	 220.0	 4	    1.11000	    0.95000;
	165	 1	 0.0	 0.0	 0.0	 0.0	 1	    1.03000	    0.00000	 220.0	 4	    1.11000	    0.95000;
	166	 1	 0.0	 0.0	 0.0	 0.0	 1	    1.03000	    0.00000	 220.0	 4	    1.11000	    0.95000;
	167	 1	 0.0	 0.0	 0.0	 0.0	 1	    1.03000	    0.00000	 220.0	 4	    1.11000	    0.95000;
	168	 1	 0.0	 0.0	 0.0	 0.0	 1	    1.03000	    0.00000	 220.0	 4	    1.11000	    0.95000;
	169	 1	 0.0	 0.0	 0.0	 0.0	 1	    1.03000	    0.00000	 220.0	 4	    1.11000	    0.95000;
	170	 1	 0.0	 0.0	 0.0	 0.0	 1	    1.00000	    0.00000	 400.0	 4	    1.05000	    0.95000;
	171	 1	 0.0	 0.0	 0.0	 0.0	 1	    1.00000	    0.00000	 400.0	 4	    1.05000	    0.95000;
	172	 1	 0.0	 0.0	 0.0	 0.0	 1	    1.03000	    0.00000	 220.0	 4	    1.11000	    0.95000;
	173	 1	 0.0	 0.0	 0.0	 0.0	 1	    1.03000	    0.00000	 220.0	 4	    1.11000	    0.95000;
	174	 1	 0.0	 0.0	 0.0	 0.0	 1	    1.03000	    0.00000	 220.0	 4	    1.11000	    0.95000;
	175	 1	 0.0	 0.0	 0.0	 0.0	 1	    1.03000	    0.00000	 220.0	 4	    1.11000	    0.95000;
	176	 1	 0.0	 0.0	 0.0	 0.0	 1	    1.03000	    0.00000	 220.0	 4	    1.11000	    0.95000;
	177	 1	 0.0	 0.0	 0.0	 0.0	 1	    1.03000	    0.00000	 220.0	 4	    1.11000	    0.95000;
	178	 1	 0.0	 0.0	 0.0	 0.0	 1	    1.03000	    0.00000	 220.0	 4	    1.11000	    0.95000;
	179	 2	 3.13	 1.5	 0.0	 0.0	 1	    1.03000	    0.00000	 220.0	 4	    1.11000	    0.95000;
	180	 1	 0.0	 0.0	 0.0	 0.0	 1	    1.03000	    0.00000	 220.0	 4	    1.11000	    0.95000;
	181	 1	 0.0	 0.0	 0.0	 0.0	 1	    1.03000	    0.00000	 220.0	 5	    1.11000	    0.95000;
	182	 1	 0.0	 0.0	 0.0	 0.0	 1	    1.03000	    0.00000	 220.0	 5	    1.11000	    0.95000;
	183	 1	 0.0	 0.0	 0.0	 0.0	 1	    1.00000	    0.00000	 400.0	 5	    1.05000	    0.95000;
	184	 1	 0.0	 0.0	 0.0	 0.0	 1	    1.00000	    0.00000	 400.0	 5	    1.05000	    0.95000;
	185	 1	 0.0	 0.0	 0.0	 0.0	 1	    1.00000	    0.00000	 400.0	 5	    1.05000	    0.95000;
	186	 1	 0.0	 0.0	 0.0	 0.0	 1	    1.00000	    0.00000	 400.0	 5	    1.05000	    0.95000;
	187	 1	 0.0	 0.0	 0.0	 0.0	 1	    1.03000	    0.00000	 220.0	 5	    1.11000	    0.95000;
	188	 1	 0.0	 0.0	 0.0	 0.0	 1	    1.03000	    0.00000	 220.0	 5	    1.11000	    0.95000;
	189	 1	 0.0	 0.0	 0.0	 0.0	 1	    1.03000	    0.00000	 220.0	 5	    1.11000	    0.95000;
	190	 1	 0.0	 0.0	 0.0	 0.0	 1	    1.03000	    0.00000	 220.0	 5	    1.11000	    0.95000;
	191	 1	 0.0	 0.0	 0.0	 0.0	 1	    1.00000	    0.00000	 400.0	 5	    1.05000	    0.95000;
	192	 1	 0.0	 0.0	 0.0	 0.0	 1	    1.03000	    0.00000	 220.0	 5	    1.11000	    0.95000;
	193	 1	 0.0	 0.0	 0.0	 0.0	 1	    1.03000	    0.00000	 220.0	 5	    1.11000	    0.95000;
	194	 1	 0.0	 0.0	 0.0	 0.0	 1	    1.00000	    0.00000	 400.0	 5	    1.05000	    0.95000;
	195	 1	 0.0	 0.0	 0.0	 0.0	 1	    1.00000	    0.00000	 400.0	 5	    1.05000	    0.95000;
	196	 1	 0.0	 0.0	 0.0	 0.0	 1	    1.03000	    0.00000	 220.0	 5	    1.11000	    0.95000;
	197	 1	 0.0	 0.0	 0.0	 0.0	 1	    1.03000	    0.00000	 220.0	 5	    1.11000	    0.95000;
	198	 1	 0.0	 0.0	 0.0	 -117.0	 1	    1.00000	    0.00000	 400.0	 5	    1.05000	    0.95000;
	199	 1	 0.0	 0.0	 0.0	 0.0	 1	    1.00000	    0.00000	 400.0	 5	    1.05000	    0.95000;
	200	 1	 0.0	 0.0	 0.0	 0.0	 1	    1.03000	    0.00000	 220.0	 5	    1.11000	    0.95000;
...
];

%% generator data
%	bus	Pg	Qg	Qmax	Qmin	Vg	mBase	status	Pmax	Pmin
mpc.gen = [
	17	 0.0	 0.0	 120.0	 -22.0	 1.03	 241.9	 0	 210.0	 140.0;
	17	 0.0	 0.0	 120.0	 -22.0	 1.03	 233.2	 0	 200.0	 140.0;
	26	 330.0	 85.5	 190.0	 -19.0	 1.03	 415.9	 1	 370.0	 290.0;
	27	 325.0	 85.5	 190.0	 -19.0	 1.03	 407.1	 1	 360.0	 290.0;
	27	 325.0	 85.5	 190.0	 -19.0	 1.03	 407.1	 1	 360.0	 290.0;
	27	 330.0	 85.5	 190.0	 -19.0	 1.03	 415.9	 1	 370.0	 290.0;
	26	 330.0	 85.5	 190.0	 -19.0	 1.03	 415.9	 1	 370.0	 290.0;
	28	 330.0	 85.5	 190.0	 -19.0	 1.0	 415.9	 1	 370.0	 290.0;
	28	 0.0	 0.0	 190.0	 -19.0	 1.0	 415.9	 0	 370.0	 290.0;
	28	 330.0	 85.5	 190.0	 -19.0	 1.0	 415.9	 1	 370.0	 290.0;
	29	 0.0	 0.0	 190.0	 -19.0	 1.0	 415.9	 0	 370.0	 290.0;
	29	 330.0	 85.5	 190.0	 -19.0	 1.0	 415.9	 1	 370.0	 290.0;
	29	 330.0	 85.5	 190.0	 -19.0	 1.0	 415.9	 1	 370.0	 290.0;
	42	 172.5	 50.5	 135.0	 -34.0	 1.03	 253.9	 1	 215.0	 130.0;
	42	 0.0	 0.0	 130.0	 -34.0	 1.03	 242.7	 0	 205.0	 135.0;
	42	 167.5	 55.5	 145.0	 -34.0	 1.03	 267.7	 1	 225.0	 110.0;
	43	 172.5	 55.5	 145.0	 -34.0	 1.03	 267.7	 1	 225.0	 120.0;
	43	 177.5	 55.5	 145.0	 -34.0	 1.03	 267.7	 1	 225.0	 130.0;
	43	 0.0	 0.0	 130.0	 -34.0	 1.03	 242.7	 0	 205.0	 135.0;
	44	 395.0	 158.0	 363.0	 -47.0	 1.0	 646.5	 1	 535.0	 255.0;
	44	 0.0	 0.0	 348.0	 -100.0	 1.0	 659.3	 0	 560.0	 250.0;
	54	 177.0	 51.5	 104.0	 -1.0	 1.03	 247.9	 1	 225.0	 129.0;
	55	 177.0	 57.0	 130.0	 -16.0	 1.03	 259.9	 1	 225.0	 129.0;
	54	 0.0	 0.0	 130.0	 -16.0	 1.03	 259.9	 0	 225.0	 129.0;
	56	 177.0	 57.0	 130.0	 -16.0	 1.0	 259.9	 1	 225.0	 129.0;
	57	 177.0	 57.0	 130.0	 -16.0	 1.0	 259.9	 1	 225.0	 129.0;
	57	 0.0	 0.0	 104.0	 -1.0	 1.0	 247.9	 0	 225.0	 129.0;
	57	 177.0	 57.0	 130.0	 -16.0	 1.0	 259.9	 1	 225.0	 129.0;
	58	 48.1	 15.0	 30.0	 0.0	 1.03	 66.5	 1	 48.1	 48.1;
	77	 182.5	 54.0	 123.0	 -15.0	 1.03	 256.4	 1	 225.0	 140.0;
	77	 182.5	 54.0	 123.0	 -15.0	 1.03	 256.4	 1	 225.0	 140.0;
	78	 0.0	 0.0	 123.0	 -15.0	 1.03	 252.0	 0	 220.0	 140.0;
	78	 182.5	 54.0	 123.0	 -15.0	 1.03	 256.4	 1	 225.0	 140.0;
	78	 182.5	 54.0	 123.0	 -15.0	 1.03	 256.4	 1	 225.0	 140.0;
	81	 300.0	 100.5	 232.0	 -31.0	 1.0	 445.2	 1	 380.0	 220.0;
	81	 0.0	 0.0	 228.0	 -30.0	 1.0	 434.6	 0	 370.0	 220.0;
	97	 9.0	 0.5	 1.0	 0.0	 1.03	 12.0	 1	 9.0	 9.0;
	97	 6.0	 0.5	 1.0	 0.0	 1.03	 6.1	 1	 6.0	 6.0;
	103	 179.5	 54.0	 123.0	 -15.0	 1.03	 256.4	 1	 225.0	 134.0;
	104	 0.0	 0.0	 123.0	 -15.0	 1.03	 256.4	 0	 225.0	 134.0;
	105	 99.5	 39.0	 80.0	 -2.0	 1.03	 144.2	 1	 120.0	 79.0;
	106	 0.0	 0.0	 80.0	 -2.0	 1.03	 144.2	 0	 120.0	 79.0;
	115	 0.0	 0.0	 90.0	 -20.0	 1.03	 150.0	 0	 120.0	 90.0;
	116	 95.0	 40.0	 82.0	 -2.0	 1.03	 145.3	 1	 120.0	 70.0;
	117	 95.0	 20.0	 40.0	 0.0	 1.03	 117.0	 1	 110.0	 80.0;
	124	 187.5	 50.0	 135.0	 -35.0	 1.03	 253.9	 1	 215.0	 160.0;
	125	 182.5	 52.5	 140.0	 -35.0	 1.03	 265.0	 1	 225.0	 140.0;
	125	 187.5	 50.0	 135.0	 -35.0	 1.03	 253.9	 1	 215.0	 160.0;
	126	 182.5	 50.0	 140.0	 -40.0	 1.0	 265.0	 1	 225.0	 140.0;
	126	 0.0	 0.0	 137.0	 -40.0	 1.0	 259.2	 0	 220.0	 160.0;
	131	 62.5	 1.0	 40.0	 -38.0	 1.03	 131.2	 1	 125.0	 0.0;
	131	 0.0	 0.0	 40.0	 -38.0	 1.03	 131.2	 0	 125.0	 0.0;
	132	 0.0	 0.0	 40.0	 -38.0	 1.03	 131.2	 0	 125.0	 0.0;
	132	 0.0	 0.0	 40.0	 -38.0	 1.03	 131.2	 0	 125.0	 0.0;
	133	 0.0	 0.0	 90.0	 0.0	 1.03	 150.0	 0	 120.0	 100.0;
	133	 110.0	 45.0	 90.0	 0.0	 1.03	 150.0	 1	 120.0	 100.0;
	134	 110.0	 45.0	 90.0	 0.0	 1.03	 150.0	 1	 120.0	 100.0;
	145	 0.0	 0.0	 12.0	 0.0	 1.03	 51.4	 0	 50.0	 30.0;
	145	 0.0	 0.0	 12.0	 0.0	 1.03	 51.4	 0	 50.0	 30.0;
	146	 0.0	 0.0	 90.0	 0.0	 1.03	 150.0	 0	 120.0	 90.0;
	147	 0.0	 0.0	 149.0	 -48.0	 1.03	 267.4	 0	 222.0	 90.0;
	147	 0.0	 0.0	 149.0	 -48.0	 1.03	 253.4	 0	 205.0	 135.0;
	147	 0.0	 0.0	 149.0	 -48.0	 1.03	 253.4	 0	 205.0	 135.0;
	147	 156.0	 50.5	 149.0	 -48.0	 1.03	 267.4	 1	 222.0	 90.0;
	149	 156.0	 50.0	 123.0	 -23.0	 1.0	 253.8	 1	 222.0	 90.0;
	150	 156.0	 50.5	 149.0	 -48.0	 1.0	 267.4	 1	 222.0	 90.0;
	150	 0.0	 0.0	 123.0	 -23.0	 1.0	 253.8	 0	 222.0	 90.0;
	154	 164.5	 48.0	 149.0	 -53.0	 1.03	 278.3	 1	 235.0	 94.0;
	154	 0.0	 0.0	 149.0	 -53.0	 1.03	 278.3	 0	 235.0	 94.0;
	154	 182.5	 60.0	 120.0	 0.0	 1.03	 287.3	 1	 261.0	 104.0;
	154	 0.0	 0.0	 132.0	 -40.0	 1.03	 292.5	 0	 261.0	 104.0;
	155	 0.0	 0.0	 120.0	 0.0	 1.03	 287.3	 0	 261.0	 104.0;
	155	 167.5	 47.5	 117.0	 -22.0	 1.03	 236.0	 1	 205.0	 130.0;
	155	 163.0	 44.5	 109.0	 -20.0	 1.03	 233.1	 1	 206.0	 120.0;
	155	 0.0	 0.0	 109.0	 -20.0	 1.03	 233.1	 0	 206.0	 120.0;
	157	 163.0	 44.5	 109.0	 -20.0	 1.0	 233.1	 1	 206.0	 120.0;
	163	 0.0	 0.0	 104.0	 -23.0	 1.03	 225.4	 0	 200.0	 150.0;
	163	 175.0	 40.5	 104.0	 -23.0	 1.03	 225.4	 1	 200.0	 150.0;
	164	 175.0	 40.5	 104.0	 -23.0	 1.03	 225.4	 1	 200.0	 150.0;
	164	 175.0	 40.5	 104.0	 -23.0	 1.03	 225.4	 1	 200.0	 150.0;
	179	 170.0	 55.0	 110.0	 0.0	 1.03	 219.5	 1	 170.0	 170.0;
	204	 89.5	 25.0	 110.0	 -60.0	 1.0	 210.1	 1	 179.0	 0.0;
	204	 89.5	 25.0	 110.0	 -60.0	 1.0	 210.1	 1	 179.0	 0.0;
	204	 89.5	 25.0	 110.0	 -60.0	 1.0	 210.1	 1	 179.0	 0.0;
	205	 89.5	 25.0	 110.0	 -60.0	 1.0	 210.1	 1	 179.0	 0.0;
	214	 35.0	 10.0	 20.0	 0.0	 1.035	 58.5	 1	 35.0	 35.0;
	214	 0.0	 0.0	 20.0	 0.0	 1.035	 53.9	 0	 0.0	 0.0;
	214	 0.0	 0.0	 20.0	 0.0	 1.035	 53.9	 0	 0.0	 0.0;
	214	 10.0	 10.0	 20.0	 0.0	 1.035	 30.5	 1	 10.0	 10.0;
	220	 1.55	 0.5	 1.0	 0.0	 1.035	 2.3	 1	 1.55	 1.55;
	221	 1.55	 0.5	 1.0	 0.0	 1.035	 2.3	 1	 1.55	 1.55;
	239	 7.0	 3.0	 6.0	 0.0	 1.035	 9.8	 1	 7.0	 7.0;
	246	 330.0	 85.5	 190.0	 -19.0	 1.035	 415.9	 1	 370.0	 290.0;
	309	 0.0	 0.0	 7.0	 0.0	 1.035	 27.9	 0	 0.0	 0.0;
	309	 0.0	 0.0	 7.0	 0.0	 1.035	 27.9	 0	 0.0	 0.0;
	309	 11.0	 5.5	 7.0	 4.0	 1.035	 30.8	 1	 11.0	 11.0;
	309	 0.0	 0.0	 7.0	 0.0	 1.035	 27.9	 0	 0.0	 0.0;
	309	 0.0	 0.0	 6.0	 0.0	 1.035	 27.7	 0	 0.0	 0.0;
	309	 0.0	 0.0	 7.0	 0.0	 1.035	 27.9	 0	 0.0	 0.0;
	309	 0.0	 0.0	 7.0	 0.0	 1.035	 27.9	 0	 0.0	 0.0;
	310	 15.0	 7.5	 15.0	 0.0	 1.035	 36.7	 1	 15.0	 15.0;
	310	 0.0	 0.0	 15.0	 0.0	 1.035	 57.0	 0	 0.0	 0.0;
	311	 15.0	 7.5	 15.0	 0.0	 1.035	 36.7	 1	 15.0	 15.0;
	311	 0.0	 0.0	 15.0	 0.0	 1.035	 57.0	 0	 0.0	 0.0;
	313	 30.0	 10.0	 20.0	 0.0	 1.035	 53.9	 1	 30.0	 30.0;
	313	 0.0	 0.0	 20.0	 0.0	 1.035	 53.9	 0	 0.0	 0.0;
	314	 0.0	 0.0	 40.0	 0.0	 1.035	 107.7	 0	 0.0	 0.0;
	322	 2.5	 1.5	 3.0	 0.0	 1.035	 4.1	 1	 2.5	 2.5;
	365	 43.25	 6.0	 12.0	 0.0	 1.035	 47.8	 1	 43.25	 43.25;
	366	 43.25	 6.0	 12.0	 0.0	 1.035	 47.8	 1	 43.25	 43.25;
	367	 43.25	 6.0	 12.0	 0.0	 1.035	 47.8	 1	 43.25	 43.25;
	368	 43.25	 6.0	 12.0	 0.0	 1.035	 47.8	 1	 43.25	 43.25;
	385	 175.0	 45.5	 138.0	 -47.0	 1.035	 251.3	 1	 210.0	 140.0;
	385	 0.0	 0.0	 10.0	 0.0	 1.035	 26.9	 0	 25.0	 12.0;
	386	 13.5	 5.0	 10.0	 0.0	 1.035	 19.7	 1	 17.0	 10.0;
	443	 1.5	 1.0	 2.0	 0.0	 1.035	 3.6	 1	 1.5	 1.5;
	452	 5.21	 1.0	 2.0	 0.0	 1.035	 6.1	 1	 5.21	 5.21;
	452	 0.0	 0.0	 2.0	 0.0	 1.035	 6.1	 0	 0.0	 0.0;
	485	 1.4	 0.35	 0.7	 0.0	 1.035	 1.7	 1	 1.4	 1.4;
	536	 40.0	 7.0	 14.0	 0.0	 1.035	 53.9	 1	 40.0	 40.0;
	536	 0.0	 0.0	 14.0	 0.0	 1.035	 34.9	 0	 0.0	 0.0;
	536	 0.0	 0.0	 14.0	 0.0	 1.035	 34.0	 0	 0.0	 0.0;
	536	 0.0	 0.0	 14.0	 0.0	 1.035	 105.9	 0	 0.0	 0.0;
	536	 0.0	 0.0	 14.0	 0.0	 1.035	 105.9	 0	 0.0	 0.0;
	537	 25.0	 8.75	 17.5	 0.0	 1.035	 36.5	 1	 25.0	 25.0;
	537	 25.0	 8.75	 17.5	 0.0	 1.035	 35.6	 1	 25.0	 25.0;
	537	 0.0	 0.0	 17.5	 0.0	 1.035	 126.2	 0	 0.0	 0.0;
	537	 0.0	 0.0	 17.5	 0.0	 1.035	 106.4	 0	 0.0	 0.0;
	551	 1.4	 0.35	 0.7	 0.0	 1.035	 1.7	 1	 1.4	 1.4;
	559	 30.0	 2.5	 5.0	 0.0	 1.035	 34.4	 1	 30.0	 30.0;
	559	 0.0	 0.0	 5.0	 0.0	 1.035	 28.4	 0	 0.0	 0.0;
	559	 0.0	 0.0	 5.0	 0.0	 1.035	 26.5	 0	 0.0	 0.0;
	559	 0.0	 0.0	 5.0	 0.0	 1.035	 30.4	 0	 0.0	 0.0;
	559	 0.0	 0.0	 5.0	 0.0	 1.035	 34.4	 0	 0.0	 0.0;
	560	 30.0	 2.5	 5.0	 0.0	 1.035	 34.4	 1	 30.0	 30.0;
	560	 0.0	 0.0	 5.0	 0.0	 1.035	 34.4	 0	 0.0	 0.0;
	560	 0.0	 0.0	 5.0	 0.0	 1.035	 26.5	 0	 0.0	 0.0;
	560	 0.0	 0.0	 5.0	 0.0	 1.035	 34.4	 0	 0.0	 0.0;
	573	 1.0	 2.0	 4.0	 0.0	 1.035	 8.9	 1	 1.0	 1.0;
	626	 78.0	 15.0	 30.0	 0.0	 1.035	 97.7	 1	 78.0	 78.0;
	626	 30.0	 15.0	 30.0	 0.0	 1.035	 46.8	 1	 30.0	 30.0;
	664	 177.5	 55.5	 145.0	 -34.0	 1.035	 267.7	 1	 225.0	 130.0;
	665	 0.0	 0.0	 145.0	 -34.0	 1.035	 267.7	 0	 225.0	 130.0;
	685	 150.0	 15.0	 30.0	 0.0	 1.035	 182.5	 1	 150.0	 150.0;
	685	 50.0	 15.0	 30.0	 0.0	 1.035	 77.5	 1	 50.0	 50.0;
	691	 2.43	 0.9	 1.8	 0.0	 1.035	 3.1	 1	 2.43	 2.43;
	716	 1.47	 0.65	 1.3	 0.0	 1.035	 10.1	 1	 1.47	 1.47;
	740	 177.0	 57.0	 130.0	 -16.0	 1.035	 259.9	 1	 225.0	 129.0;
	763	 86.0	 15.0	 30.0	 0.0	 1.035	 105.4	 1	 86.0	 86.0;
	792	 1.0	 0.5	 1.0	 0.0	 1.035	 8.4	 1	 1.0	 1.0;
	796	 36.55	 11.5	 23.0	 0.0	 1.035	 71.9	 1	 68.1	 5.0;
	796	 0.0	 0.0	 23.0	 0.0	 1.035	 71.9	 0	 68.1	 5.0;
	796	 0.0	 0.0	 11.0	 0.0	 1.035	 32.9	 0	 31.0	 16.0;
	796	 0.0	 0.0	 10.0	 0.0	 1.035	 32.6	 0	 31.0	 16.0;
	807	 0.0	 0.0	 10.0	 0.0	 1.035	 125.4	 0	 125.0	 84.0;
	808	 108.5	 5.0	 10.0	 0.0	 1.035	 125.4	 1	 125.0	 92.0;
	845	 15.0	 4.05	 8.1	 0.0	 1.035	 33.0	 1	 15.0	 15.0;
	845	 15.0	 4.05	 8.1	 0.0	 1.035	 33.0	 1	 15.0	 15.0;
	845	 0.0	 0.0	 0.0	 0.0	 1.035	 19.0	 0	 0.0	 0.0;
	845	 0.0	 0.0	 0.0	 0.0	 1.035	 19.0	 0	 0.0	 0.0;
	877	 35.0	 20.6	 41.2	 0.0	 1.035	 87.7	 1	 35.0	 35.0;
	900	 0.0	 0.0	 45.0	 -10.0	 1.035	 65.8	 0	 0.0	 0.0;
	900	 50.0	 17.5	 45.0	 -10.0	 1.035	 71.1	 1	 50.0	 50.0;
	900	 0.0	 0.0	 45.0	 -10.0	 1.035	 71.1	 0	 0.0	 0.0;
	975	 0.0	 0.0	 110.0	 -40.0	 1.035	 162.2	 0	 0.0	 0.0;
	976	 100.0	 35.0	 110.0	 -40.0	 1.035	 162.2	 1	 100.0	 100.0;
	980	 0.0	 0.0	 0.0	 0.0	 1.035	 16.8	 0	 0.0	 0.0;
	1001	 303.0	 104.0	 240.0	 -32.0	 1.035	 454.5	 1	 386.0	 220.0;
	1002	 295.0	 98.5	 227.0	 -30.0	 1.035	 434.1	 1	 370.0	 220.0;
	1006	 6.0	 0.7235	 1.447	 0.0	 1.035	 7.1	 1	 6.0	 6.0;
	1005	 4.0	 0.2235	 0.447	 0.0	 1.035	 4.0	 1	 4.0	 4.0;
	1006	 4.0	 0.2235	 0.447	 0.0	 1.035	 5.0	 1	 4.0	 4.0;
	1006	 0.0	 0.0	 0.0	 0.0	 1.035	 6.0	 0	 0.0	 0.0;
	1007	 0.0	 0.0	 110.0	 -40.0	 1.035	 174.1	 0	 0.0	 0.0;
	1013	 15.0	 2.4	 4.8	 0.0	 1.035	 20.6	 1	 15.0	 15.0;
	1013	 0.0	 0.0	 0.0	 0.0	 1.035	 12.8	 0	 0.0	 0.0;
	1013	 0.0	 0.0	 0.0	 0.0	 1.035	 12.5	 0	 0.0	 0.0;
	1015	 0.0	 0.0	 0.0	 0.0	 1.035	 20.0	 0	 0.0	 0.0;
	1015	 0.0	 0.0	 0.0	 0.0	 1.035	 19.0	 0	 0.0	 0.0;
	1024	 12.0	 13.5	 18.0	 9.0	 1.035	 30.0	 1	 12.0	 12.0;
	1025	 0.0	 0.0	 18.0	 9.0	 1.035	 30.0	 0	 0.0	 0.0;
	1026	 0.0	 0.0	 14.0	 10.5	 1.035	 32.2	 0	 0.0	 0.0;
	1113	 0.0	 0.0	 37.5	 16.8	 1.035	 62.5	 0	 0.0	 0.0;
	1114	 0.0	 0.0	 37.5	 7.5	 1.035	 62.5	 0	 0.0	 0.0;
	1113	 50.0	 22.5	 37.5	 7.5	 1.035	 62.5	 1	 50.0	 50.0;
	1115	 0.0	 0.0	 37.5	 16.8	 1.035	 62.5	 0	 0.0	 0.0;
	1152	 17.0	 2.6255	 5.251	 0.0	 1.035	 30.5	 1	 17.0	 17.0;
	1152	 0.0	 0.0	 0.0	 0.0	 1.035	 6.0	 0	 0.0	 0.0;
	1153	 17.0	 2.6255	 5.251	 0.0	 1.035	 30.5	 1	 17.0	 17.0;
	1153	 0.0	 0.0	 0.0	 0.0	 1.035	 25.0	 0	 0.0	 0.0;
	1154	 16.0	 2.625	 5.25	 0.0	 1.035	 30.5	 1	 16.0	 16.0;
	1154	 0.0	 0.0	 0.0	 0.0	 1.035	 6.0	 0	 0.0	 0.0;
	1179	 70.0	 26.25	 52.5	 0.0	 1.035	 87.5	 1	 70.0	 70.0;
	1180	 0.0	 0.0	 52.5	 0.0	 1.035	 87.5	 0	 0.0	 0.0;
	1180	 0.0	 0.0	 42.0	 16.8	 1.035	 65.3	 0	 0.0	 0.0;
	1188	 50.0	 0.0	 0.0	 0.0	 1.035	 50.0	 1	 50.0	 50.0;
	1246	 10.0	 1.0	 2.0	 0.0	 1.035	 16.7	 1	 10.0	 10.0;
	1246	 0.0	 0.0	 0.0	 0.0	 1.035	 24.0	 0	 0.0	 0.0;
	1247	 0.0	 0.0	 0.0	 0.0	 1.035	 14.6	 0	 0.0	 0.0;
	1247	 0.0	 0.0	 0.0	 0.0	 1.035	 14.6	 0	 0.0	 0.0;
...
];

%% generator cost data
%	2	startup	shutdown	n	c(n-1)	...	c0
mpc.gencost = [
2	0.0	0.0	3	0.2	112.780000	0.000000;
2	0.0	0.0	3	0.2	112.780000	0.000000;
2	0.0	0.0	3	0.2	76.100000	0.000000;
2	0.0	0.0	3	0.2	76.100000	0.000000;
2	0.0	0.0	3	0.2	76.100000	0.000000;
2	0.0	0.0	3	0.2	76.100000	0.000000;
2	0.0	0.0	3	0.2	76.100000	0.000000;
2	0.0	0.0	3	0.2	76.100000	0.000000;
2	0.0	0.0	3	0.2	76.100000	0.000000;
2	0.0	0.0	3	0.2	76.100000	0.000000;
2	0.0	0.0	3	0.2	76.100000	0.000000;
2	0.0	0.0	3	0.2	76.100000	0.000000;
2	0.0	0.0	3	0.2	76.100000	0.000000;
2	0.0	0.0	3	0.2	102.050000	0.000000;
2	0.0	0.0	3	0.2	102.050000	0.000000;
2	0.0	0.0	3	0.2	102.050000	0.000000;
2	0.0	0.0	3	0.2	102.050000	0.000000;
2	0.0	0.0	3	0.2	102.050000	0.000000;
2	0.0	0.0	3	0.2	102.050000	0.000000;
2	0.0	0.0	3	0.2	102.050000	0.000000;
2	0.0	0.0	3	0.2	102.050000	0.000000;
2	0.0	0.0	3	0.2	105.350000	0.000000;
2	0.0	0.0	3	0.2	105.350000	0.000000;
2	0.0	0.0	3	0.2	105.350000	0.000000;
2	0.0	0.0	3	0.2	105.350000	0.000000;
2	0.0	0.0	3	0.2	105.350000	0.000000;
2	0.0	0.0	3	0.2	105.350000	0.000000;
2	0.0	0.0	3	0.2	105.350000	0.000000;
	2	 0.0	 0.0	 3	   0.000000	   0.000000	   0.000000;
2	0.0	0.0	3	0.2	95.310000	0.000000;
2	0.0	0.0	3	0.2	95.310000	0.000000;
2	0.0	0.0	3	0.2	95.310000	0.000000;
2	0.0	0.0	3	0.2	95.310000	0.000000;
2	0.0	0.0	3	0.2	95.310000	0.000000;
2	0.0	0.0	3	0.2	90.030000	0.000000;
2	0.0	0.0	3	0.2	90.030000	0.000000;
	2	 0.0	 0.0	 3	   0.000000	   0.000000	   0.000000;
	2	 0.0	 0.0	 3	   0.000000	   0.000000	   0.000000;
2	0.0	0.0	3	0.2	92.780000	0.000000;
2	0.0	0.0	3	0.2	92.780000	0.000000;
2	0.0	0.0	3	0.2	94.090000	0.000000;
2	0.0	0.0	3	0.2	94.090000	0.000000;
2	0.0	0.0	3	0.2	97.120000	0.000000;
2	0.0	0.0	3	0.2	97.120000	0.000000;
2	0.0	0.0	3	0.2	99.520000	0.000000;
2	0.0	0.0	3	0.2	91.160000	0.000000;
2	0.0	0.0	3	0.2	91.160000	0.000000;
2	0.0	0.0	3	0.2	91.160000	0.000000;
2	0.0	0.0	3	0.2	91.160000	0.000000;
2	0.0	0.0	3	0.2	91.160000	0.000000;
2	0.0	0.0	3	0.2	0.010000	0.000000;
2	0.0	0.0	3	0.2	0.010000	0.000000;
2	0.0	0.0	3	0.2	0.010000	0.000000;
2	0.0	0.0	3	0.2	0.010000	0.000000;
2	0.0	0.0	3	0.2	92.430000	0.000000;
2	0.0	0.0	3	0.2	92.430000	0.000000;
2	0.0	0.0	3	0.2	92.430000	0.000000;
2	0.0	0.0	3	0.2	96.420000	0.000000;
2	0.0	0.0	3	0.2	96.420000	0.000000;
2	0.0	0.0	3	0.2	96.420000	0.000000;
2	0.0	0.0	3	0.2	116.010000	0.000000;
2	0.0	0.0	3	0.2	116.010000	0.000000;
2	0.0	0.0	3	0.2	116.010000	0.000000;
2	0.0	0.0	3	0.2	116.010000	0.000000;
2	0.0	0.0	3	0.2	116.010000	0.000000;
2	0.0	0.0	3	0.2	116.010000	0.000000;
2	0.0	0.0	3	0.2	116.010000	0.000000;
2	0.0	0.0	3	0.2	98.840000	0.000000;
2	0.0	0.0	3	0.2	98.840000	0.000000;
2	0.0	0.0	3	0.2	98.840000	0.000000;
2	0.0	0.0	3	0.2	98.840000	0.000000;
2	0.0	0.0	3	0.2	98.840000	0.000000;
2	0.0	0.0	3	0.2	98.840000	0.000000;
2	0.0	0.0	3	0.2	98.840000	0.000000;
2	0.0	0.0	3	0.2	98.840000	0.000000;
2	0.0	0.0	3	0.2	98.840000	0.000000;
2	0.0	0.0	3	0.2	89.220000	0.000000;
2	0.0	0.0	3	0.2	89.220000	0.000000;
2	0.0	0.0	3	0.2	89.220000	0.000000;
2	0.0	0.0	3	0.2	89.220000	0.000000;
	2	 0.0	 0.0	 3	   0.000000	   0.000000	   0.000000;
2	0.0	0.0	3	0.2	0.010000	0.000000;
2	0.0	0.0	3	0.2	0.010000	0.000000;
2	0.0	0.0	3	0.2	0.010000	0.000000;
2	0.0	0.0	3	0.2	0.010000	0.000000;
	2	 0.0	 0.0	 3	   0.000000	   0.000000	   0.000000;
	2	 0.0	 0.0	 3	   0.000000	   0.000000	   0.000000;
	2	 0.0	 0.0	 3	   0.000000	   0.000000	   0.000000;
	2	 0.0	 0.0	 3	   0.000000	   0.000000	   0.000000;
	2	 0.0	 0.0	 3	   0.000000	   0.000000	   0.000000;
	2	 0.0	 0.0	 3	   0.000000	   0.000000	   0.000000;
	2	 0.0	 0.0	 3	   0.000000	   0.000000	   0.000000;
2	0.0	0.0	3	0.2	76.100000	0.000000;
	2	 0.0	 0.0	 3	   0.000000	   0.000000	   0.000000;
	2	 0.0	 0.0	 3	   0.000000	   0.000000	   0.000000;
	2	 0.0	 0.0	 3	   0.000000	   0.000000	   0.000000;
	2	 0.0	 0.0	 3	   0.000000	   0.000000	   0.000000;
	2	 0.0	 0.0	 3	   0.000000	   0.000000	   0.000000;
	2	 0.0	 0.0	 3	   0.000000	   0.000000	   0.000000;
	2	 0.0	 0.0	 3	   0.000000	   0.000000	   0.000000;
	2	 0.0	 0.0	 3	   0.000000	   0.000000	   0.000000;
	2	 0.0	 0.0	 3	   0.000000	   0.000000	   0.000000;
	2	 0.0	 0.0	 3	   0.000000	   0.000000	   0.000000;
	2	 0.0	 0.0	 3	   0.000000	   0.000000	   0.000000;
	2	 0.0	 0.0	 3	   0.000000	   0.000000	   0.000000;
	2	 0.0	 0.0	 3	   0.000000	   0.000000	   0.000000;
	2	 0.0	 0.0	 3	   0.000000	   0.000000	   0.000000;
	2	 0.0	 0.0	 3	   0.000000	   0.000000	   0.000000;
	2	 0.0	 0.0	 3	   0.000000	   0.000000	   0.000000;
	2	 0.0	 0.0	 3	   0.000000	   0.000000	   0.000000;
	2	 0.0	 0.0	 3	   0.000000	   0.000000	   0.000000;
	2	 0.0	 0.0	 3	   0.000000	   0.000000	   0.000000;
2	0.0	0.0	3	0.2	112.780000	0.000000;
2	0.0	0.0	3	0.2	112.780000	0.000000;
2	0.0	0.0	3	0.2	112.780000	0.000000;
	2	 0.0	 0.0	 3	   0.000000	   0.000000	   0.000000;
	2	 0.0	 0.0	 3	   0.000000	   0.000000	   0.000000;
	2	 0.0	 0.0	 3	   0.000000	   0.000000	   0.000000;
	2	 0.0	 0.0	 3	   0.000000	   0.000000	   0.000000;
	2	 0.0	 0.0	 3	   0.000000	   0.000000	   0.000000;
	2	 0.0	 0.0	 3	   0.000000	   0.000000	   0.000000;
	2	 0.0	 0.0	 3	   0.000000	   0.000000	   0.000000;
	2	 0.0	 0.0	 3	   0.000000	   0.000000	   0.000000;
	2	 0.0	 0.0	 3	   0.000000	   0.000000	   0.000000;
	2	 0.0	 0.0	 3	   0.000000	   0.000000	   0.000000;
	2	 0.0	 0.0	 3	   0.000000	   0.000000	   0.000000;
	2	 0.0	 0.0	 3	   0.000000	   0.000000	   0.000000;
	2	 0.0	 0.0	 3	   0.000000	   0.000000	   0.000000;
	2	 0.0	 0.0	 3	   0.000000	   0.000000	   0.000000;
	2	 0.0	 0.0	 3	   0.000000	   0.000000	   0.000000;
	2	 0.0	 0.0	 3	   0.000000	   0.000000	   0.000000;
	2	 0.0	 0.0	 3	   0.000000	   0.000000	   0.000000;
	2	 0.0	 0.0	 3	   0.000000	   0.000000	   0.000000;
	2	 0.0	 0.0	 3	   0.000000	   0.000000	   0.000000;
	2	 0.0	 0.0	 3	   0.000000	   0.000000	   0.000000;
	2	 0.0	 0.0	 3	   0.000000	   0.000000	   0.000000;
	2	 0.0	 0.0	 3	   0.000000	   0.000000	   0.000000;
	2	 0.0	 0.0	 3	   0.000000	   0.000000	   0.000000;
	2	 0.0	 0.0	 3	   0.000000	   0.000000	   0.000000;
	2	 0.0	 0.0	 3	   0.000000	   0.000000	   0.000000;
	2	 0.0	 0.0	 3	   0.000000	   0.000000	   0.000000;
2	0.0	0.0	3	0.2	102.050000	0.000000;
2	0.0	0.0	3	0.2	102.050000	0.000000;
	2	 0.0	 0.0	 3	   0.000000	   0.000000	   0.000000;
	2	 0.0	 0.0	 3	   0.000000	   0.000000	   0.000000;
	2	 0.0	 0.0	 3	   0.000000	   0.000000	   0.000000;
	2	 0.0	 0.0	 3	   0.000000	   0.000000	   0.000000;
2	0.0	0.0	3	0.2	105.350000	0.000000;
	2	 0.0	 0.0	 3	   0.000000	   0.000000	   0.000000;
	2	 0.0	 0.0	 3	   0.000000	   0.000000	   0.000000;
2	0.0	0.0	3	0.2	0.010000	0.000000;
2	0.0	0.0	3	0.2	0.010000	0.000000;
2	0.0	0.0	3	0.2	0.010000	0.000000;
2	0.0	0.0	3	0.2	0.010000	0.000000;
2	0.0	0.0	3	0.2	111.630000	0.000000;
2	0.0	0.0	3	0.2	111.630000	0.000000;
	2	 0.0	 0.0	 3	   0.000000	   0.000000	   0.000000;
	2	 0.0	 0.0	 3	   0.000000	   0.000000	   0.000000;
	2	 0.0	 0.0	 3	   0.000000	   0.000000	   0.000000;
	2	 0.0	 0.0	 3	   0.000000	   0.000000	   0.000000;
	2	 0.0	 0.0	 3	   0.000000	   0.000000	   0.000000;
	2	 0.0	 0.0	 3	   0.000000	   0.000000	   0.000000;
	2	 0.0	 0.0	 3	   0.000000	   0.000000	   0.000000;
	2	 0.0	 0.0	 3	   0.000000	   0.000000	   0.000000;
	2	 0.0	 0.0	 3	   0.000000	   0.000000	   0.000000;
	2	 0.0	 0.0	 3	   0.000000	   0.000000	   0.000000;
	2	 0.0	 0.0	 3	   0.000000	   0.000000	   0.000000;
2	0.0	0.0	3	0.2	90.030000	0.000000;
2	0.0	0.0	3	0.2	90.030000	0.000000;
	2	 0.0	 0.0	 3	   0.000000	   0.000000	   0.000000;
	2	 0.0	 0.0	 3	   0.000000	   0.000000	   0.000000;
	2	 0.0	 0.0	 3	   0.000000	   0.000000	   0.000000;
	2	 0.0	 0.0	 3	   0.000000	   0.000000	   0.000000;
	2	 0.0	 0.0	 3	   0.000000	   0.000000	   0.000000;
	2	 0.0	 0.0	 3	   0.000000	   0.000000	   0.000000;
	2	 0.0	 0.0	 3	   0.000000	   0.000000	   0.000000;
	2	 0.0	 0.0	 3	   0.000000	   0.000000	   0.000000;
	2	 0.0	 0.0	 3	   0.000000	   0.000000	   0.000000;
	2	 0.0	 0.0	 3	   0.000000	   0.000000	   0.000000;
	2	 0.0	 0.0	 3	   0.000000	   0.000000	   0.000000;
	2	 0.0	 0.0	 3	   0.000000	   0.000000	   0.000000;
	2	 0.0	 0.0	 3	   0.000000	   0.000000	   0.000000;
	2	 0.0	 0.0	 3	   0.000000	   0.000000	   0.000000;
	2	 0.0	 0.0	 3	   0.000000	   0.000000	   0.000000;
	2	 0.0	 0.0	 3	   0.000000	   0.000000	   0.000000;
	2	 0.0	 0.0	 3	   0.000000	   0.000000	   0.000000;
	2	 0.0	 0.0	 3	   0.000000	   0.000000	   0.000000;
	2	 0.0	 0.0	 3	   0.000000	   0.000000	   0.000000;
	2	 0.0	 0.0	 3	   0.000000	   0.000000	   0.000000;
	2	 0.0	 0.0	 3	   0.000000	   0.000000	   0.000000;
	2	 0.0	 0.0	 3	   0.000000	   0.000000	   0.000000;
	2	 0.0	 0.0	 3	   0.000000	   0.000000	   0.000000;
	2	 0.0	 0.0	 3	   0.000000	   0.000000	   0.000000;
	2	 0.0	 0.0	 3	   0.000000	   0.000000	   0.000000;
	2	 0.0	 0.0	 3	   0.000000	   0.000000	   0.000000;
	2	 0.0	 0.0	 3	   0.000000	   0.000000	   0.000000;
	2	 0.0	 0.0	 3	   0.000000	   0.000000	   0.000000;
	2	 0.0	 0.0	 3	   0.000000	   0.000000	   0.000000;
	2	 0.0	 0.0	 3	   0.000000	   0.000000	   0.000000;
	2	 0.0	 0.0	 3	   0.000000	   0.000000	   0.000000;
...
];

%% storage data
%	bus	energy	energy_rating	charge_rating	discharge_rating	thermal_rating	qmin	qmax	r	x	standby_loss	status
mpc.storage = [
	2724	0.0	0.0	1.00	647.2500	323.6250	233.0100	0.9	0.85	1000	-1000	1000	0.1	0.01	0	0	1;
	2725	0.0	0.0	1.00	556.8000	278.4000	200.4480	0.9	0.85	1000	-1000	1000	0.1	0.01	0	0	1;
	2729	0.0	0.0	1.00	461.3730	230.6865	166.0943	0.9	0.85	1000	-1000	1000	0.1	0.01	0	0	1;
	2723	0.0	0.0	1.00	266.4060	133.2030	95.9062	0.9	0.85	1000	-1000	1000	0.1	0.01	0	0	1;
	2041	0.0	0.0	1.00	220.7430	110.3715	79.4675	0.9	0.85	1000	-1000	1000	0.1	0.01	0	0	1;
	2726	0.0	0.0	1.00	204.4965	102.2482	73.6187	0.9	0.85	1000	-1000	1000	0.1	0.01	0	0	1;
	2554	0.0	0.0	1.00	199.0650	99.5325	71.6634	0.9	0.85	1000	-1000	1000	0.1	0.01	0	0	1;
	1188	0.0	0.0	1.00	149.7240	74.8620	53.9006	0.9	0.85	1000	-1000	1000	0.1	0.01	0	0	1;
	2675	0.0	0.0	1.00	137.4690	68.7345	49.4888	0.9	0.85	1000	-1000	1000	0.1	0.01	0	0	1;
	58	0.0	0.0	1.00	133.6005	66.8002	48.0962	0.9	0.85	1000	-1000	1000	0.1	0.01	0	0	1;
	27	0.0	0.0	1.00	127.2915	63.6458	45.8249	0.9	0.85	1000	-1000	1000	0.1	0.01	0	0	1;
	1247	0.0	0.0	1.00	125.4810	62.7405	45.1732	0.9	0.85	1000	-1000	1000	0.1	0.01	0	0	1;
	1187	0.0	0.0	1.00	114.4545	57.2272	41.2036	0.9	0.85	1000	-1000	1000	0.1	0.01	0	0	1;
	108	0.0	0.0	1.00	110.6685	55.3342	39.8407	0.9	0.85	1000	-1000	1000	0.1	0.01	0	0	1;
	2712	0.0	0.0	1.00	105.0870	52.5435	37.8313	0.9	0.85	1000	-1000	1000	0.1	0.01	0	0	1;
	2736	0.0	0.0	1.00	97.5000	48.7500	35.1000	0.9	0.85	1000	-1000	1000	0.1	0.01	0	0	1;
	1137	0.0	0.0	1.00	95.3505	47.6752	34.3262	0.9	0.85	1000	-1000	1000	0.1	0.01	0	0	1;
	26	0.0	0.0	1.00	92.0370	46.0185	33.1333	0.9	0.85	1000	-1000	1000	0.1	0.01	0	0	1;
	2280	0.0	0.0	1.00	90.9840	45.4920	32.7542	0.9	0.85	1000	-1000	1000	0.1	0.01	0	0	1;
	365	0.0	0.0	1.00	79.9155	39.9578	28.7696	0.9	0.85	1000	-1000	1000	0.1	0.01	0	0	1;
	366	0.0	0.0	1.00	79.9155	39.9578	28.7696	0.9	0.85	1000	-1000	1000	0.1	0.01	0	0	1;
	367	0.0	0.0	1.00	79.9155	39.9578	28.7696	0.9	0.85	1000	-1000	1000	0.1	0.01	0	0	1;
	368	0.0	0.0	1.00	79.9155	39.9578	28.7696	0.9	0.85	1000	-1000	1000	0.1	0.01	0	0	1;
	508	0.0	0.0	1.00	79.9155	39.9578	28.7696	0.9	0.85	1000	-1000	1000	0.1	0.01	0	0	1;
	2420	0.0	0.0	1.00	78.7530	39.3765	28.3511	0.9	0.85	1000	-1000	1000	0.1	0.01	0	0	1;
	2713	0.0	0.0	1.00	75.0615	37.5307	27.0221	0.9	0.85	1000	-1000	1000	0.1	0.01	0	0	1;
	28	0.0	0.0	1.00	73.5000	36.7500	26.4600	0.9	0.85	1000	-1000	1000	0.1	0.01	0	0	1;
	29	0.0	0.0	1.00	73.5000	36.7500	26.4600	0.9	0.85	1000	-1000	1000	0.1	0.01	0	0	1;
	1139	0.0	0.0	1.00	72.8025	36.4012	26.2089	0.9	0.85	1000	-1000	1000	0.1	0.01	0	0	1;
	85	0.0	0.0	1.00	67.2960	33.6480	24.2266	0.9	0.85	1000	-1000	1000	0.1	0.01	0	0	1;
	733	0.0	0.0	1.00	63.6195	31.8097	22.9030	0.9	0.85	1000	-1000	1000	0.1	0.01	0	0	1;
	2235	0.0	0.0	1.00	62.0955	31.0478	22.3544	0.9	0.85	1000	-1000	1000	0.1	0.01	0	0	1;
	125	0.0	0.0	1.00	62.0295	31.0147	22.3306	0.9	0.85	1000	-1000	1000	0.1	0.01	0	0	1;
	2118	0.0	0.0	1.00	60.7365	30.3682	21.8651	0.9	0.85	1000	-1000	1000	0.1	0.01	0	0	1;
	844	0.0	0.0	1.00	58.5180	29.2590	21.0665	0.9	0.85	1000	-1000	1000	0.1	0.01	0	0	1;
	527	0.0	0.0	1.00	57.5385	28.7692	20.7139	0.9	0.85	1000	-1000	1000	0.1	0.01	0	0	1;
	545	0.0	0.0	1.00	57.5385	28.7692	20.7139	0.9	0.85	1000	-1000	1000	0.1	0.01	0	0	1;
	284	0.0	0.0	1.00	55.9410	27.9705	20.1388	0.9	0.85	1000	-1000	1000	0.1	0.01	0	0	1;
	2037	0.0	0.0	1.00	55.4115	27.7058	19.9481	0.9	0.85	1000	-1000	1000	0.1	0.01	0	0	1;
	2038	0.0	0.0	1.00	55.2090	27.6045	19.8752	0.9	0.85	1000	-1000	1000	0.1	0.01	0	0	1;
	1144	0.0	0.0	1.00	55.0755	27.5377	19.8272	0.9	0.85	1000	-1000	1000	0.1	0.01	0	0	1;
	716	0.0	0.0	1.00	54.8715	27.4358	19.7537	0.9	0.85	1000	-1000	1000	0.1	0.01	0	0	1;
	2708	0.0	0.0	1.00	54.6555	27.3277	19.6760	0.9	0.85	1000	-1000	1000	0.1	0.01	0	0	1;
	730	0.0	0.0	1.00	54.4890	27.2445	19.6160	0.9	0.85	1000	-1000	1000	0.1	0.01	0	0	1;
	551	0.0	0.0	1.00	54.3435	27.1717	19.5637	0.9	0.85	1000	-1000	1000	0.1	0.01	0	0	1;
	1024	0.0	0.0	1.00	52.5330	26.2665	18.9119	0.9	0.85	1000	-1000	1000	0.1	0.01	0	0	1;
	265	0.0	0.0	1.00	51.1455	25.5727	18.4124	0.9	0.85	1000	-1000	1000	0.1	0.01	0	0	1;
	2014	0.0	0.0	1.00	49.9095	24.9548	17.9674	0.9	0.85	1000	-1000	1000	0.1	0.01	0	0	1;
	2529	0.0	0.0	1.00	49.6875	24.8438	17.8875	0.9	0.85	1000	-1000	1000	0.1	0.01	0	0	1;
	534	0.0	0.0	1.00	49.5480	24.7740	17.8373	0.9	0.85	1000	-1000	1000	0.1	0.01	0	0	1;
	2648	0.0	0.0	1.00	49.5405	24.7703	17.8346	0.9	0.85	1000	-1000	1000	0.1	0.01	0	0	1;
	2733	0.0	0.0	1.00	49.5000	24.7500	17.8200	0.9	0.85	1000	-1000	1000	0.1	0.01	0	0	1;
	234	0.0	0.0	1.00	47.9490	23.9745	17.2616	0.9	0.85	1000	-1000	1000	0.1	0.01	0	0	1;
	1014	0.0	0.0	1.00	46.4985	23.2492	16.7395	0.9	0.85	1000	-1000	1000	0.1	0.01	0	0	1;
	2053	0.0	0.0	1.00	45.5865	22.7933	16.4111	0.9	0.85	1000	-1000	1000	0.1	0.01	0	0	1;
	717	0.0	0.0	1.00	45.0975	22.5488	16.2351	0.9	0.85	1000	-1000	1000	0.1	0.01	0	0	1;
	1434	0.0	0.0	1.00	45.0855	22.5427	16.2308	0.9	0.85	1000	-1000	1000	0.1	0.01	0	0	1;
	758	0.0	0.0	1.00	44.5335	22.2668	16.0321	0.9	0.85	1000	-1000	1000	0.1	0.01	0	0	1;
	864	0.0	0.0	1.00	43.8135	21.9067	15.7729	0.9	0.85	1000	-1000	1000	0.1	0.01	0	0	1;
	1248	0.0	0.0	1.00	43.7895	21.8948	15.7642	0.9	0.85	1000	-1000	1000	0.1	0.01	0	0	1;
	2039	0.0	0.0	1.00	43.4820	21.7410	15.6535	0.9	0.85	1000	-1000	1000	0.1	0.01	0	0	1;
	549	0.0	0.0	1.00	43.1535	21.5767	15.5353	0.9	0.85	1000	-1000	1000	0.1	0.01	0	0	1;
	2096	0.0	0.0	1.00	41.8740	20.9370	15.0746	0.9	0.85	1000	-1000	1000	0.1	0.01	0	0	1;
	266	0.0	0.0	1.00	41.5560	20.7780	14.9602	0.9	0.85	1000	-1000	1000	0.1	0.01	0	0	1;
	2427	0.0	0.0	1.00	41.0760	20.5380	14.7874	0.9	0.85	1000	-1000	1000	0.1	0.01	0	0	1;
	2632	0.0	0.0	1.00	41.0415	20.5207	14.7749	0.9	0.85	1000	-1000	1000	0.1	0.01	0	0	1;
	404	0.0	0.0	1.00	40.7580	20.3790	14.6729	0.9	0.85	1000	-1000	1000	0.1	0.01	0	0	1;
	77	0.0	0.0	1.00	40.5000	20.2500	14.5800	0.9	0.85	1000	-1000	1000	0.1	0.01	0	0	1;
	332	0.0	0.0	1.00	40.2780	20.1390	14.5001	0.9	0.85	1000	-1000	1000	0.1	0.01	0	0	1;
	507	0.0	0.0	1.00	39.9585	19.9793	14.3851	0.9	0.85	1000	-1000	1000	0.1	0.01	0	0	1;
	807	0.0	0.0	1.00	39.7605	19.8803	14.3138	0.9	0.85	1000	-1000	1000	0.1	0.01	0	0	1;
	43	0.0	0.0	1.00	39.0000	19.5000	14.0400	0.9	0.85	1000	-1000	1000	0.1	0.01	0	0	1;
	57	0.0	0.0	1.00	39.0000	19.5000	14.0400	0.9	0.85	1000	-1000	1000	0.1	0.01	0	0	1;
	2027	0.0	0.0	1.00	38.8680	19.4340	13.9925	0.9	0.85	1000	-1000	1000	0.1	0.01	0	0	1;
	605	0.0	0.0	1.00	38.6475	19.3238	13.9131	0.9	0.85	1000	-1000	1000	0.1	0.01	0	0	1;
	264	0.0	0.0	1.00	38.3610	19.1805	13.8100	0.9	0.85	1000	-1000	1000	0.1	0.01	0	0	1;
	147	0.0	0.0	1.00	38.3295	19.1648	13.7986	0.9	0.85	1000	-1000	1000	0.1	0.01	0	0	1;
	764	0.0	0.0	1.00	38.0820	19.0410	13.7095	0.9	0.85	1000	-1000	1000	0.1	0.01	0	0	1;
	1363	0.0	0.0	1.00	37.8180	18.9090	13.6145	0.9	0.85	1000	-1000	1000	0.1	0.01	0	0	1;
	42	0.0	0.0	1.00	37.5000	18.7500	13.5000	0.9	0.85	1000	-1000	1000	0.1	0.01	0	0	1;
	44	0.0	0.0	1.00	37.5000	18.7500	13.5000	0.9	0.85	1000	-1000	1000	0.1	0.01	0	0	1;
	2735	0.0	0.0	1.00	37.5000	18.7500	13.5000	0.9	0.85	1000	-1000	1000	0.1	0.01	0	0	1;
	1001	0.0	0.0	1.00	37.3260	18.6630	13.4374	0.9	0.85	1000	-1000	1000	0.1	0.01	0	0	1;
	1002	0.0	0.0	1.00	37.3260	18.6630	13.4374	0.9	0.85	1000	-1000	1000	0.1	0.01	0	0	1;
	1369	0.0	0.0	1.00	37.1760	18.5880	13.3834	0.9	0.85	1000	-1000	1000	0.1	0.01	0	0	1;
	808	0.0	0.0	1.00	37.1160	18.5580	13.3618	0.9	0.85	1000	-1000	1000	0.1	0.01	0	0	1;
	502	0.0	0.0	1.00	37.0800	18.5400	13.3488	0.9	0.85	1000	-1000	1000	0.1	0.01	0	0	1;
	496	0.0	0.0	1.00	36.7605	18.3803	13.2338	0.9	0.85	1000	-1000	1000	0.1	0.01	0	0	1;
	497	0.0	0.0	1.00	35.6430	17.8215	12.8315	0.9	0.85	1000	-1000	1000	0.1	0.01	0	0	1;
	544	0.0	0.0	1.00	35.4825	17.7413	12.7737	0.9	0.85	1000	-1000	1000	0.1	0.01	0	0	1;
	2080	0.0	0.0	1.00	35.4495	17.7248	12.7618	0.9	0.85	1000	-1000	1000	0.1	0.01	0	0	1;
	2428	0.0	0.0	1.00	35.3520	17.6760	12.7267	0.9	0.85	1000	-1000	1000	0.1	0.01	0	0	1;
	1157	0.0	0.0	1.00	35.1690	17.5845	12.6608	0.9	0.85	1000	-1000	1000	0.1	0.01	0	0	1;
	655	0.0	0.0	1.00	34.9905	17.4953	12.5966	0.9	0.85	1000	-1000	1000	0.1	0.01	0	0	1;
	667	0.0	0.0	1.00	34.9905	17.4953	12.5966	0.9	0.85	1000	-1000	1000	0.1	0.01	0	0	1;
	2035	0.0	0.0	1.00	34.3935	17.1967	12.3817	0.9	0.85	1000	-1000	1000	0.1	0.01	0	0	1;
	405	0.0	0.0	1.00	34.3635	17.1818	12.3709	0.9	0.85	1000	-1000	1000	0.1	0.01	0	0	1;
	2079	0.0	0.0	1.00	33.8835	16.9417	12.1981	0.9	0.85	1000	-1000	1000	0.1	0.01	0	0	1;
	2208	0.0	0.0	1.00	33.5160	16.7580	12.0658	0.9	0.85	1000	-1000	1000	0.1	0.01	0	0	1;
	1152	0.0	0.0	1.00	33.4155	16.7078	12.0296	0.9	0.85	1000	-1000	1000	0.1	0.01	0	0	1;
	2097	0.0	0.0	1.00	33.2205	16.6103	11.9594	0.9	0.85	1000	-1000	1000	0.1	0.01	0	0	1;
	2098	0.0	0.0	1.00	33.2175	16.6088	11.9583	0.9	0.85	1000	-1000	1000	0.1	0.01	0	0	1;
	1342	0.0	0.0	1.00	33.0300	16.5150	11.8908	0.9	0.85	1000	-1000	1000	0.1	0.01	0	0	1;
	1343	0.0	0.0	1.00	33.0300	16.5150	11.8908	0.9	0.85	1000	-1000	1000	0.1	0.01	0	0	1;
	2667	0.0	0.0	1.00	32.8335	16.4168	11.8201	0.9	0.85	1000	-1000	1000	0.1	0.01	0	0	1;
	525	0.0	0.0	1.00	32.7660	16.3830	11.7958	0.9	0.85	1000	-1000	1000	0.1	0.01	0	0	1;
	541	0.0	0.0	1.00	32.7660	16.3830	11.7958	0.9	0.85	1000	-1000	1000	0.1	0.01	0	0	1;
	542	0.0	0.0	1.00	32.7660	16.3830	11.7958	0.9	0.85	1000	-1000	1000	0.1	0.01	0	0	1;
	524	0.0	0.0	1.00	32.7645	16.3822	11.7952	0.9	0.85	1000	-1000	1000	0.1	0.01	0	0	1;
	2345	0.0	0.0	1.00	32.7330	16.3665	11.7839	0.9	0.85	1000	-1000	1000	0.1	0.01	0	0	1;
	1776	0.0	0.0	1.00	32.7000	16.3500	11.7720	0.9	0.85	1000	-1000	1000	0.1	0.01	0	0	1;
	214	0.0	0.0	1.00	32.5665	16.2832	11.7239	0.9	0.85	1000	-1000	1000	0.1	0.01	0	0	1;
	1154	0.0	0.0	1.00	32.0040	16.0020	11.5214	0.9	0.85	1000	-1000	1000	0.1	0.01	0	0	1;
	543	0.0	0.0	1.00	31.9665	15.9832	11.5079	0.9	0.85	1000	-1000	1000	0.1	0.01	0	0	1;
	851	0.0	0.0	1.00	31.8690	15.9345	11.4728	0.9	0.85	1000	-1000	1000	0.1	0.01	0	0	1;
	2693	0.0	0.0	1.00	31.5690	15.7845	11.3648	0.9	0.85	1000	-1000	1000	0.1	0.01	0	0	1;
	1939	0.0	0.0	1.00	31.4145	15.7073	11.3092	0.9	0.85	1000	-1000	1000	0.1	0.01	0	0	1;
	532	0.0	0.0	1.00	30.6870	15.3435	11.0473	0.9	0.85	1000	-1000	1000	0.1	0.01	0	0	1;
	533	0.0	0.0	1.00	30.6870	15.3435	11.0473	0.9	0.85	1000	-1000	1000	0.1	0.01	0	0	1;
	2343	0.0	0.0	1.00	30.6705	15.3352	11.0414	0.9	0.85	1000	-1000	1000	0.1	0.01	0	0	1;
	2299	0.0	0.0	1.00	30.5220	15.2610	10.9879	0.9	0.85	1000	-1000	1000	0.1	0.01	0	0	1;
	2332	0.0	0.0	1.00	30.2550	15.1275	10.8918	0.9	0.85	1000	-1000	1000	0.1	0.01	0	0	1;
	595	0.0	0.0	1.00	30.0540	15.0270	10.8194	0.9	0.85	1000	-1000	1000	0.1	0.01	0	0	1;
	511	0.0	0.0	1.00	29.8875	14.9438	10.7595	0.9	0.85	1000	-1000	1000	0.1	0.01	0	0	1;
	1153	0.0	0.0	1.00	29.8170	14.9085	10.7341	0.9	0.85	1000	-1000	1000	0.1	0.01	0	0	1;
	2646	0.0	0.0	1.00	29.8125	14.9062	10.7325	0.9	0.85	1000	-1000	1000	0.1	0.01	0	0	1;
	2236	0.0	0.0	1.00	29.6055	14.8027	10.6580	0.9	0.85	1000	-1000	1000	0.1	0.01	0	0	1;
	1194	0.0	0.0	1.00	29.4300	14.7150	10.5948	0.9	0.85	1000	-1000	1000	0.1	0.01	0	0	1;
	1543	0.0	0.0	1.00	29.2590	14.6295	10.5332	0.9	0.85	1000	-1000	1000	0.1	0.01	0	0	1;
	154	0.0	0.0	1.00	29.2125	14.6063	10.5165	0.9	0.85	1000	-1000	1000	0.1	0.01	0	0	1;
	1907	0.0	0.0	1.00	28.8300	14.4150	10.3788	0.9	0.85	1000	-1000	1000	0.1	0.01	0	0	1;
	489	0.0	0.0	1.00	28.7700	14.3850	10.3572	0.9	0.85	1000	-1000	1000	0.1	0.01	0	0	1;
	678	0.0	0.0	1.00	28.6290	14.3145	10.3064	0.9	0.85	1000	-1000	1000	0.1	0.01	0	0	1;
	2215	0.0	0.0	1.00	28.5375	14.2687	10.2735	0.9	0.85	1000	-1000	1000	0.1	0.01	0	0	1;
	2203	0.0	0.0	1.00	28.5315	14.2658	10.2713	0.9	0.85	1000	-1000	1000	0.1	0.01	0	0	1;
	78	0.0	0.0	1.00	28.0500	14.0250	10.0980	0.9	0.85	1000	-1000	1000	0.1	0.01	0	0	1;
	2265	0.0	0.0	1.00	27.9330	13.9665	10.0559	0.9	0.85	1000	-1000	1000	0.1	0.01	0	0	1;
	975	0.0	0.0	1.00	27.5490	13.7745	9.9176	0.9	0.85	1000	-1000	1000	0.1	0.01	0	0	1;
	2473	0.0	0.0	1.00	27.4875	13.7437	9.8955	0.9	0.85	1000	-1000	1000	0.1	0.01	0	0	1;
	164	0.0	0.0	1.00	27.3825	13.6913	9.8577	0.9	0.85	1000	-1000	1000	0.1	0.01	0	0	1;
	2535	0.0	0.0	1.00	27.3075	13.6537	9.8307	0.9	0.85	1000	-1000	1000	0.1	0.01	0	0	1;
	519	0.0	0.0	1.00	27.1725	13.5862	9.7821	0.9	0.85	1000	-1000	1000	0.1	0.01	0	0	1;
	781	0.0	0.0	1.00	27.0390	13.5195	9.7340	0.9	0.85	1000	-1000	1000	0.1	0.01	0	0	1;
	2639	0.0	0.0	1.00	27.0375	13.5187	9.7335	0.9	0.85	1000	-1000	1000	0.1	0.01	0	0	1;
	2607	0.0	0.0	1.00	27.0225	13.5113	9.7281	0.9	0.85	1000	-1000	1000	0.1	0.01	0	0	1;
	2670	0.0	0.0	1.00	27.0225	13.5113	9.7281	0.9	0.85	1000	-1000	1000	0.1	0.01	0	0	1;
	81	0.0	0.0	1.00	27.0000	13.5000	9.7200	0.9	0.85	1000	-1000	1000	0.1	0.01	0	0	1;
	1287	0.0	0.0	1.00	27.0000	13.5000	9.7200	0.9	0.85	1000	-1000	1000	0.1	0.01	0	0	1;
	920	0.0	0.0	1.00	26.8485	13.4243	9.6655	0.9	0.85	1000	-1000	1000	0.1	0.01	0	0	1;
	2112	0.0	0.0	1.00	26.5665	13.2832	9.5639	0.9	0.85	1000	-1000	1000	0.1	0.01	0	0	1;
	1005	0.0	0.0	1.00	26.3220	13.1610	9.4759	0.9	0.85	1000	-1000	1000	0.1	0.01	0	0	1;
	628	0.0	0.0	1.00	26.3025	13.1513	9.4689	0.9	0.85	1000	-1000	1000	0.1	0.01	0	0	1;
	680	0.0	0.0	1.00	26.3025	13.1513	9.4689	0.9	0.85	1000	-1000	1000	0.1	0.01	0	0	1;
	2318	0.0	0.0	1.00	26.0595	13.0297	9.3814	0.9	0.85	1000	-1000	1000	0.1	0.01	0	0	1;
	98	0.0	0.0	1.00	25.9905	12.9953	9.3566	0.9	0.85	1000	-1000	1000	0.1	0.01	0	0	1;
	2382	0.0	0.0	1.00	25.8120	12.9060	9.2923	0.9	0.85	1000	-1000	1000	0.1	0.01	0	0	1;
	494	0.0	0.0	1.00	25.5735	12.7867	9.2065	0.9	0.85	1000	-1000	1000	0.1	0.01	0	0	1;
	495	0.0	0.0	1.00	25.5735	12.7867	9.2065	0.9	0.85	1000	-1000	1000	0.1	0.01	0	0	1;
	371	0.0	0.0	1.00	25.5720	12.7860	9.2059	0.9	0.85	1000	-1000	1000	0.1	0.01	0	0	1;
	1991	0.0	0.0	1.00	25.5330	12.7665	9.1919	0.9	0.85	1000	-1000	1000	0.1	0.01	0	0	1;
	2731	0.0	0.0	1.00	25.5000	12.7500	9.1800	0.9	0.85	1000	-1000	1000	0.1	0.01	0	0	1;
	1400	0.0	0.0	1.00	25.4730	12.7365	9.1703	0.9	0.85	1000	-1000	1000	0.1	0.01	0	0	1;
	1672	0.0	0.0	1.00	25.4265	12.7133	9.1535	0.9	0.85	1000	-1000	1000	0.1	0.01	0	0	1;
	2204	0.0	0.0	1.00	25.4145	12.7073	9.1492	0.9	0.85	1000	-1000	1000	0.1	0.01	0	0	1;
	2636	0.0	0.0	1.00	25.4145	12.7073	9.1492	0.9	0.85	1000	-1000	1000	0.1	0.01	0	0	1;
	481	0.0	0.0	1.00	25.0935	12.5467	9.0337	0.9	0.85	1000	-1000	1000	0.1	0.01	0	0	1;
	1736	0.0	0.0	1.00	24.9975	12.4987	8.9991	0.9	0.85	1000	-1000	1000	0.1	0.01	0	0	1;
	2145	0.0	0.0	1.00	24.9525	12.4763	8.9829	0.9	0.85	1000	-1000	1000	0.1	0.01	0	0	1;
	2463	0.0	0.0	1.00	24.8445	12.4222	8.9440	0.9	0.85	1000	-1000	1000	0.1	0.01	0	0	1;
	719	0.0	0.0	1.00	24.8115	12.4058	8.9321	0.9	0.85	1000	-1000	1000	0.1	0.01	0	0	1;
	418	0.0	0.0	1.00	24.7740	12.3870	8.9186	0.9	0.85	1000	-1000	1000	0.1	0.01	0	0	1;
	438	0.0	0.0	1.00	24.7740	12.3870	8.9186	0.9	0.85	1000	-1000	1000	0.1	0.01	0	0	1;
	2601	0.0	0.0	1.00	24.7710	12.3855	8.9176	0.9	0.85	1000	-1000	1000	0.1	0.01	0	0	1;
	2698	0.0	0.0	1.00	24.5580	12.2790	8.8409	0.9	0.85	1000	-1000	1000	0.1	0.01	0	0	1;
	1931	0.0	0.0	1.00	24.3690	12.1845	8.7728	0.9	0.85	1000	-1000	1000	0.1	0.01	0	0	1;
	2029	0.0	0.0	1.00	24.3450	12.1725	8.7642	0.9	0.85	1000	-1000	1000	0.1	0.01	0	0	1;
	2336	0.0	0.0	1.00	24.3255	12.1627	8.7572	0.9	0.85	1000	-1000	1000	0.1	0.01	0	0	1;
	2116	0.0	0.0	1.00	24.3105	12.1553	8.7518	0.9	0.85	1000	-1000	1000	0.1	0.01	0	0	1;
	2308	0.0	0.0	1.00	24.2910	12.1455	8.7448	0.9	0.85	1000	-1000	1000	0.1	0.01	0	0	1;
	2678	0.0	0.0	1.00	24.1500	12.0750	8.6940	0.9	0.85	1000	-1000	1000	0.1	0.01	0	0	1;
	914	0.0	0.0	1.00	24.0960	12.0480	8.6746	0.9	0.85	1000	-1000	1000	0.1	0.01	0	0	1;
	155	0.0	0.0	1.00	24.0000	12.0000	8.6400	0.9	0.85	1000	-1000	1000	0.1	0.01	0	0	1;
	2734	0.0	0.0	1.00	24.0000	12.0000	8.6400	0.9	0.85	1000	-1000	1000	0.1	0.01	0	0	1;
	540	0.0	0.0	1.00	23.9760	11.9880	8.6314	0.9	0.85	1000	-1000	1000	0.1	0.01	0	0	1;
	782	0.0	0.0	1.00	23.8575	11.9287	8.5887	0.9	0.85	1000	-1000	1000	0.1	0.01	0	0	1;
	2190	0.0	0.0	1.00	23.8455	11.9228	8.5844	0.9	0.85	1000	-1000	1000	0.1	0.01	0	0	1;
	1161	0.0	0.0	1.00	23.7855	11.8927	8.5628	0.9	0.85	1000	-1000	1000	0.1	0.01	0	0	1;
	2072	0.0	0.0	1.00	23.6295	11.8148	8.5066	0.9	0.85	1000	-1000	1000	0.1	0.01	0	0	1;
	2259	0.0	0.0	1.00	23.6295	11.8148	8.5066	0.9	0.85	1000	-1000	1000	0.1	0.01	0	0	1;
	311	0.0	0.0	1.00	23.3595	11.6798	8.4094	0.9	0.85	1000	-1000	1000	0.1	0.01	0	0	1;
	2547	0.0	0.0	1.00	23.2695	11.6348	8.3770	0.9	0.85	1000	-1000	1000	0.1	0.01	0	0	1;
	2526	0.0	0.0	1.00	23.1885	11.5942	8.3479	0.9	0.85	1000	-1000	1000	0.1	0.01	0	0	1;
	2571	0.0	0.0	1.00	23.1885	11.5942	8.3479	0.9	0.85	1000	-1000	1000	0.1	0.01	0	0	1;
	546	0.0	0.0	1.00	23.1750	11.5875	8.3430	0.9	0.85	1000	-1000	1000	0.1	0.01	0	0	1;
	1930	0.0	0.0	1.00	23.0355	11.5177	8.2928	0.9	0.85	1000	-1000	1000	0.1	0.01	0	0	1;
	2472	0.0	0.0	1.00	22.9815	11.4908	8.2733	0.9	0.85	1000	-1000	1000	0.1	0.01	0	0	1;
	2304	0.0	0.0	1.00	22.7670	11.3835	8.1961	0.9	0.85	1000	-1000	1000	0.1	0.01	0	0	1;
	1045	0.0	0.0	1.00	22.7445	11.3723	8.1880	0.9	0.85	1000	-1000	1000	0.1	0.01	0	0	1;
	2665	0.0	0.0	1.00	22.7310	11.3655	8.1832	0.9	0.85	1000	-1000	1000	0.1	0.01	0	0	1;
	537	0.0	0.0	1.00	22.6905	11.3453	8.1686	0.9	0.85	1000	-1000	1000	0.1	0.01	0	0	1;
...
];

%% branch data
%	fbus	tbus	r	x	b	rateA	rateB	rateC	ratio	angle	status	angmin	angmax
mpc.branch = [
	7	 8	 0.00064	 0.0305	 0.0	 400.0	 400.0	 400.0	 1.0435	 0.6	 1	 -30.0	 30.0;
	26	 28	 0.00036	 0.02519	 0.0	 500.0	 500.0	 500.0	 1.067	 0.0	 1	 -30.0	 30.0;
	27	 29	 0.00036	 0.02519	 0.0	 500.0	 500.0	 500.0	 1.0671	 0.0	 1	 -30.0	 30.0;
	39	 41	 0.00034	 0.02097	 0.0	 500.0	 500.0	 500.0	 1.1102	 0.0	 1	 -30.0	 30.0;
	42	 45	 0.00034	 0.02097	 0.0	 500.0	 500.0	 500.0	 1.0917	 0.0	 1	 -30.0	 30.0;
	54	 56	 0.00081	 0.03	 0.0	 400.0	 400.0	 400.0	 1.0466	 0.0	 1	 -30.0	 30.0;
	89	 91	 0.00075	 0.02444	 -0.00832	 330.0	 330.0	 330.0	 1.0553	 0.0	 1	 -30.0	 30.0;
	90	 92	 0.00075	 0.02469	 -0.008	 330.0	 330.0	 330.0	 1.0552	 0.0	 1	 -30.0	 30.0;
	124	 127	 0.0005	 0.02875	 -0.016	 400.0	 400.0	 400.0	 1.087	 0.0	 1	 -30.0	 30.0;
	148	 149	 0.00064	 0.0305	 0.0	 400.0	 400.0	 400.0	 1.0636	 0.0	 1	 -30.0	 30.0;
	154	 156	 0.000232	 0.023	 0.0	 500.0	 500.0	 500.0	 1.0953	 0.0	 1	 -30.0	 30.0;
	155	 157	 0.000232	 0.023	 0.0	 500.0	 500.0	 500.0	 1.0953	 0.0	 1	 -30.0	 30.0;
	168	 170	 0.00035	 0.02375	 0.0	 500.0	 500.0	 500.0	 1.0767	 0.0	 1	 -30.0	 30.0;
	182	 183	 0.00059	 0.03093	 0.0	 400.0	 400.0	 400.0	 1.0504	 0.0	 1	 -30.0	 30.0;
	189	 191	 0.0004	 0.03	 0.0	 500.0	 500.0	 500.0	 1.0695	 -3.6	 1	 -30.0	 30.0;
	2726	 156	 0.00031	 0.00338	 0.0992	 1386.0	 1386.0	 1386.0	 0.0	 0.0	 1	 -30.0	 30.0;
	2726	 157	 0.00031	 0.00338	 0.0992	 1386.0	 1386.0	 1386.0	 0.0	 0.0	 1	 -30.0	 30.0;
	2727	 67	 0.014341	 0.083531	 0.126034	 385.0	 385.0	 385.0	 0.0	 0.0	 1	 -30.0	 30.0;
	2725	 75	 0.01219	 0.070659	 0.117418	 412.0	 412.0	 412.0	 0.0	 0.0	 1	 -30.0	 30.0;
	2725	 104	 0.011781	 0.07087	 0.116838	 412.0	 412.0	 412.0	 0.0	 0.0	 1	 -30.0	 30.0;
	126	 2724	 0.001525	 0.016837	 0.50576	 1386.0	 1386.0	 1386.0	 0.0	 0.0	 1	 -30.0	 30.0;
	2728	 147	 0.001651	 0.015909	 0.046948	 316.0	 316.0	 316.0	 0.0	 0.0	 1	 -30.0	 30.0;
	2728	 148	 0.001651	 0.015909	 0.046948	 316.0	 316.0	 316.0	 0.0	 0.0	 1	 -30.0	 30.0;
	2729	 47	 0.00188	 0.02287	 0.6432	 831.0	 831.0	 831.0	 0.0	 0.0	 1	 -30.0	 30.0;
	2729	 48	 0.00188	 0.02287	 0.6432	 831.0	 831.0	 831.0	 0.0	 0.0	 1	 -30.0	 30.0;
	81	 2723	 0.002769	 0.031162	 0.89824	 1386.0	 1386.0	 1386.0	 0.0	 0.0	 1	 -30.0	 30.0;
	42	 23	 0.01345	 0.081141	 0.141134	 339.0	 339.0	 339.0	 0.0	 0.0	 1	 -30.0	 30.0;
	26	 89	 0.009091	 0.062401	 0.111417	 453.0	 453.0	 453.0	 0.0	 0.0	 1	 -30.0	 30.0;
	27	 90	 0.00868	 0.06405	 0.096994	 427.0	 427.0	 427.0	 0.0	 0.0	 1	 -30.0	 30.0;
	145	 30	 0.016961	 0.123659	 0.196988	 316.0	 316.0	 316.0	 0.0	 0.0	 1	 -30.0	 30.0;
	134	 33	 0.00512	 0.02618	 0.029621	 301.0	 301.0	 301.0	 0.0	 0.0	 1	 -30.0	 30.0;
	133	 20	 0.01068	 0.061961	 0.094961	 385.0	 385.0	 385.0	 0.0	 0.0	 1	 -30.0	 30.0;
	163	 21	 0.014651	 0.105891	 0.170852	 316.0	 316.0	 316.0	 0.0	 0.0	 1	 -30.0	 30.0;
	40	 108	 0.01488	 0.08161	 0.114805	 314.0	 314.0	 314.0	 0.0	 0.0	 1	 -30.0	 30.0;
	39	 90	 0.011159	 0.07231	 0.103673	 324.0	 324.0	 324.0	 0.0	 0.0	 1	 -30.0	 30.0;
	177	 82	 0.005517	 0.059484	 0.170775	 316.0	 316.0	 316.0	 0.0	 0.0	 1	 -30.0	 30.0;
...